Circuit: * C:\Users\16474\Desktop\thesis\Draft1.asc

Fatal Error: b3: Unknown circuit node: "en0" requested in behavioral source
