Circuit: * C:\Users\16474\Desktop\thesis\nvidia.asc

a2: all pins shorted together -- ignoring.
v1: Removing PWL point (1.9e-11,0)
v1: Removing PWL point (9.9e-11,0.75)
v1: Removing PWL point (1.59e-10,0)
v1: Removing PWL point (2.39e-10,0.75)
v1: Removing PWL point (2.79e-10,0)
v1: Removing PWL point (3.39e-10,0.75)
v1: Removing PWL point (3.79e-10,0)
v1: Removing PWL point (4.19e-10,0.75)
v1: Removing PWL point (4.59e-10,0)
v1: Removing PWL point (4.99e-10,0.75)
v1: Removing PWL point (5.99e-10,0)
v1: Removing PWL point (6.79e-10,0.75)
v1: Removing PWL point (7.39e-10,0)
v1: Removing PWL point (8.39e-10,0)
v1: Removing PWL point (8.79e-10,0.75)
v1: Removing PWL point (9.39e-10,0)
v1: Removing PWL point (9.79e-10,0.75)
v1: Removing PWL point (1.019e-09,0)
v1: Removing PWL point (1.079e-09,0.75)
v1: Removing PWL point (1.119e-09,0)
v1: Removing PWL point (1.199e-09,0)
v1: Removing PWL point (1.279e-09,0.75)
v1: Removing PWL point (1.399e-09,0.75)
v1: Removing PWL point (1.499e-09,0.75)
v1: Removing PWL point (1.639e-09,0.75)
v1: Removing PWL point (1.759e-09,0)
v1: Removing PWL point (1.859e-09,0)
v1: Removing PWL point (1.919e-09,0.75)
v1: Removing PWL point (1.959e-09,0)
v1: Removing PWL point (2.039e-09,0)
v1: Removing PWL point (2.099e-09,0)
v1: Removing PWL point (2.199e-09,0)
v1: Removing PWL point (2.239e-09,0.75)
v1: Removing PWL point (2.299e-09,0)
v1: Removing PWL point (2.459e-09,0.75)
v1: Removing PWL point (2.519e-09,0.75)
v5: Removing PWL point (1.9e-11,0.75)
v5: Removing PWL point (1.19e-10,0)
v5: Removing PWL point (1.79e-10,0.75)
v5: Removing PWL point (2.59e-10,0.75)
v5: Removing PWL point (2.99e-10,0)
v5: Removing PWL point (3.59e-10,0.75)
v5: Removing PWL point (4.39e-10,0)
v5: Removing PWL point (5.59e-10,0)
v5: Removing PWL point (7.19e-10,0.75)
v5: Removing PWL point (7.99e-10,0.75)
v5: Removing PWL point (8.99e-10,0)
v5: Removing PWL point (9.39e-10,0.75)
v5: Removing PWL point (1.019e-09,0.75)
v5: Removing PWL point (1.179e-09,0)
v5: Removing PWL point (1.279e-09,0.75)
v5: Removing PWL point (1.359e-09,0)
v5: Removing PWL point (1.479e-09,0)
v5: Removing PWL point (1.539e-09,0.75)
v5: Removing PWL point (1.599e-09,0)
v5: Removing PWL point (1.739e-09,0.75)
v5: Removing PWL point (1.839e-09,0.75)
v5: Removing PWL point (1.919e-09,0.75)
v5: Removing PWL point (1.999e-09,0)
v5: Removing PWL point (2.039e-09,0.75)
v5: Removing PWL point (2.099e-09,0)
v5: Removing PWL point (2.159e-09,0.75)
v5: Removing PWL point (2.199e-09,0)
v5: Removing PWL point (2.299e-09,0.75)
v5: Removing PWL point (2.339e-09,0)
v5: Removing PWL point (2.379e-09,0.75)
v5: Removing PWL point (2.419e-09,0)
WARNING: Node NC_16 is floating.
WARNING: Node P003 is floating.
WARNING: Node P005 is floating.
WARNING: Node NC_17 is floating.

WARNING: Less than two connections to node nc_16.  This node is used by r7.
WARNING: Less than two connections to node nc_17.  This node is used by c9.
Instance "m17": Length shorter than recommended for a level 1 MOSFET.
Instance "m17": Width narrower than recommended for a level 1 MOSFET.
Instance "m2": Length shorter than recommended for a level 1 MOSFET.
Instance "m2": Width narrower than recommended for a level 1 MOSFET.
Instance "m5": Length shorter than recommended for a level 1 MOSFET.
Instance "m5": Width narrower than recommended for a level 1 MOSFET.
Instance "m6": Length shorter than recommended for a level 1 MOSFET.
Instance "m6": Width narrower than recommended for a level 1 MOSFET.
Instance "m10": Length shorter than recommended for a level 1 MOSFET.
Instance "m10": Width narrower than recommended for a level 1 MOSFET.
Instance "m11": Length shorter than recommended for a level 1 MOSFET.
Instance "m11": Width narrower than recommended for a level 1 MOSFET.
Instance "m1": Length shorter than recommended for a level 1 MOSFET.
Instance "m1": Width narrower than recommended for a level 1 MOSFET.
Instance "m3": Length shorter than recommended for a level 1 MOSFET.
Instance "m3": Width narrower than recommended for a level 1 MOSFET.
Instance "m4": Length shorter than recommended for a level 1 MOSFET.
Instance "m4": Width narrower than recommended for a level 1 MOSFET.
Instance "m7": Length shorter than recommended for a level 1 MOSFET.
Instance "m7": Width narrower than recommended for a level 1 MOSFET.
Instance "m8": Length shorter than recommended for a level 1 MOSFET.
Instance "m8": Width narrower than recommended for a level 1 MOSFET.
Instance "m9": Length shorter than recommended for a level 1 MOSFET.
Instance "m9": Width narrower than recommended for a level 1 MOSFET.
Direct Newton iteration for .op point succeeded.

Date: Tue Jul  1 09:51:03 2025
Total elapsed time: 0.165 seconds.

tnom = 27
temp = 27
method = modified trap
totiter = 3934
traniter = 3928
tranpoints = 1779
accept = 1779
rejected = 0
matrix size = 47
fillins = 2
solver = Normal
Avg thread counts: 2.5/4.0/4.3/2.5
Matrix Compiler1: 1.97 KB object code size  1.0/0.8/[0.5]
Matrix Compiler2: 3.34 KB object code size  0.5/0.8/[0.4]

