Circuit: * C:\Users\16474\Desktop\thesis\nvidia_pam3.asc

v2: Removing PWL point (1e-12,0)
v2: Removing PWL point (1.81e-10,1)
v2: Removing PWL point (2e-10,0)
v2: Removing PWL point (2.61e-10,1)
v2: Removing PWL point (2.8e-10,0)
v2: Removing PWL point (3.21e-10,1)
v2: Removing PWL point (3.81e-10,0)
v2: Removing PWL point (4e-10,1)
v2: Removing PWL point (4.21e-10,0)
v2: Removing PWL point (4.41e-10,1)
v2: Removing PWL point (4.61e-10,0)
v2: Removing PWL point (8e-10,1)
v2: Removing PWL point (8.21e-10,0)
v2: Removing PWL point (8.41e-10,1)
v2: Removing PWL point (8.6e-10,0)
v2: Removing PWL point (9.81e-10,1)
v2: Removing PWL point (1.021e-09,0)
v2: Removing PWL point (1.06e-09,1)
v2: Removing PWL point (1.101e-09,0)
v2: Removing PWL point (1.12e-09,1)
v2: Removing PWL point (1.141e-09,0)
v2: Removing PWL point (1.161e-09,1)
v2: Removing PWL point (1.18e-09,0)
v2: Removing PWL point (1.24e-09,1)
v2: Removing PWL point (1.261e-09,0)
v2: Removing PWL point (1.3e-09,1)
v2: Removing PWL point (1.321e-09,0)
v2: Removing PWL point (1.561e-09,1)
v2: Removing PWL point (1.581e-09,0)
v2: Removing PWL point (1.6e-09,1)
v2: Removing PWL point (1.641e-09,0)
v2: Removing PWL point (1.66e-09,1)
v2: Removing PWL point (1.681e-09,0)
v2: Removing PWL point (1.78e-09,1)
v2: Removing PWL point (1.801e-09,0)
v2: Removing PWL point (1.961e-09,1)
v2: Removing PWL point (2.021e-09,0)
v2: Removing PWL point (2.101e-09,1)
v2: Removing PWL point (2.161e-09,0)
v2: Removing PWL point (2.201e-09,1)
v2: Removing PWL point (2.24e-09,0)
v2: Removing PWL point (2.281e-09,1)
v2: Removing PWL point (2.301e-09,0)
v2: Removing PWL point (2.48e-09,1)
v2: Removing PWL point (2.501e-09,0)
v2: Removing PWL point (2.521e-09,1)
v2: Removing PWL point (2.541e-09,0)
v2: Removing PWL point (2.6e-09,1)
v2: Removing PWL point (2.62e-09,0)
v2: Removing PWL point (2.641e-09,1)
v2: Removing PWL point (2.681e-09,0)
v2: Removing PWL point (2.701e-09,1)
v2: Removing PWL point (2.74e-09,0)
v2: Removing PWL point (2.84e-09,1)
v2: Removing PWL point (2.881e-09,0)
v2: Removing PWL point (2.921e-09,1)
v2: Removing PWL point (2.941e-09,0)
v2: Removing PWL point (2.96e-09,1)
v2: Removing PWL point (3.001e-09,0)
v2: Removing PWL point (3.021e-09,1)
v2: Removing PWL point (3.041e-09,0)
v2: Removing PWL point (3.121e-09,1)
v2: Removing PWL point (3.161e-09,0)
v2: Removing PWL point (3.181e-09,1)
v2: Removing PWL point (3.2e-09,0)
v2: Removing PWL point (3.22e-09,1)
v2: Removing PWL point (3.261e-09,0)
v2: Removing PWL point (3.301e-09,1)
v2: Removing PWL point (3.32e-09,0)
v2: Removing PWL point (3.44e-09,1)
v2: Removing PWL point (3.46e-09,0)
v2: Removing PWL point (3.541e-09,1)
v2: Removing PWL point (3.641e-09,0)
v2: Removing PWL point (3.681e-09,1)
v2: Removing PWL point (3.7e-09,0)
v2: Removing PWL point (3.76e-09,1)
v2: Removing PWL point (3.781e-09,0)
v2: Removing PWL point (3.941e-09,1)
v2: Removing PWL point (3.981e-09,0)
v2: Removing PWL point (4.041e-09,1)
v2: Removing PWL point (4.06e-09,0)
v2: Removing PWL point (4.14e-09,1)
v2: Removing PWL point (4.201e-09,0)
v2: Removing PWL point (4.221e-09,1)
v2: Removing PWL point (4.24e-09,0)
v2: Removing PWL point (4.341e-09,1)
v2: Removing PWL point (4.38e-09,0)
v2: Removing PWL point (4.401e-09,1)
v2: Removing PWL point (4.501e-09,0)
v2: Removing PWL point (4.561e-09,1)
v2: Removing PWL point (4.581e-09,0)
v2: Removing PWL point (4.641e-09,1)
v2: Removing PWL point (4.681e-09,0)
v2: Removing PWL point (4.701e-09,1)
v2: Removing PWL point (4.72e-09,0)
v2: Removing PWL point (4.801e-09,1)
v2: Removing PWL point (4.821e-09,0)
v2: Removing PWL point (4.881e-09,1)
v2: Removing PWL point (4.921e-09,0)
v2: Removing PWL point (4.96e-09,1)
v2: Removing PWL point (5.001e-09,0)
v2: Removing PWL point (5.021e-09,1)
v2: Removing PWL point (5.041e-09,0)
v2: Removing PWL point (5.081e-09,1)
v2: Removing PWL point (5.1e-09,0)
v2: Removing PWL point (5.161e-09,1)
v2: Removing PWL point (5.181e-09,0)
v2: Removing PWL point (5.24e-09,1)
v2: Removing PWL point (5.281e-09,0)
v2: Removing PWL point (5.301e-09,1)
v2: Removing PWL point (5.34e-09,0)
v2: Removing PWL point (5.381e-09,1)
v2: Removing PWL point (5.401e-09,0)
v2: Removing PWL point (5.44e-09,1)
v2: Removing PWL point (5.461e-09,0)
v2: Removing PWL point (5.48e-09,1)
v2: Removing PWL point (5.501e-09,0)
v2: Removing PWL point (5.521e-09,1)
v2: Removing PWL point (5.561e-09,0)
v2: Removing PWL point (5.621e-09,1)
v2: Removing PWL point (5.68e-09,0)
v2: Removing PWL point (5.801e-09,1)
v2: Removing PWL point (5.82e-09,0)
v2: Removing PWL point (5.841e-09,1)
v2: Removing PWL point (5.881e-09,0)
v2: Removing PWL point (5.901e-09,1)
v2: Removing PWL point (5.941e-09,0)
v2: Removing PWL point (5.981e-09,1)
v2: Removing PWL point (6.001e-09,0)
v2: Removing PWL point (6.141e-09,1)
v2: Removing PWL point (6.16e-09,0)
v2: Removing PWL point (6.361e-09,1)
v3: Removing PWL point (1e-12,0)
v3: Removing PWL point (2.1e-11,1)
v3: Removing PWL point (4.1e-11,0)
v3: Removing PWL point (6.1e-11,1)
v3: Removing PWL point (1.4e-10,0)
v3: Removing PWL point (2.21e-10,1)
v3: Removing PWL point (2.41e-10,0)
v3: Removing PWL point (4.61e-10,1)
v3: Removing PWL point (5.21e-10,0)
v3: Removing PWL point (5.41e-10,1)
v3: Removing PWL point (5.81e-10,0)
v3: Removing PWL point (7.21e-10,1)
v3: Removing PWL point (7.81e-10,0)
v3: Removing PWL point (8.21e-10,1)
v3: Removing PWL point (8.41e-10,0)
v3: Removing PWL point (8.81e-10,1)
v3: Removing PWL point (9.01e-10,0)
v3: Removing PWL point (9.4e-10,1)
v3: Removing PWL point (9.61e-10,0)
v3: Removing PWL point (1.021e-09,1)
v3: Removing PWL point (1.06e-09,0)
v3: Removing PWL point (1.101e-09,1)
v3: Removing PWL point (1.12e-09,0)
v3: Removing PWL point (1.18e-09,1)
v3: Removing PWL point (1.201e-09,0)
v3: Removing PWL point (1.221e-09,1)
v3: Removing PWL point (1.24e-09,0)
v3: Removing PWL point (1.281e-09,1)
v3: Removing PWL point (1.3e-09,0)
v3: Removing PWL point (1.321e-09,1)
v3: Removing PWL point (1.341e-09,0)
v3: Removing PWL point (1.36e-09,1)
v3: Removing PWL point (1.401e-09,0)
v3: Removing PWL point (1.42e-09,1)
v3: Removing PWL point (1.461e-09,0)
v3: Removing PWL point (1.641e-09,1)
v3: Removing PWL point (1.66e-09,0)
v3: Removing PWL point (1.681e-09,1)
v3: Removing PWL point (1.78e-09,0)
v3: Removing PWL point (1.921e-09,1)
v3: Removing PWL point (1.961e-09,0)
v3: Removing PWL point (2.021e-09,1)
v3: Removing PWL point (2.041e-09,0)
v3: Removing PWL point (2.24e-09,1)
v3: Removing PWL point (2.281e-09,0)
v3: Removing PWL point (2.301e-09,1)
v3: Removing PWL point (2.36e-09,0)
v3: Removing PWL point (2.381e-09,1)
v3: Removing PWL point (2.441e-09,0)
v3: Removing PWL point (2.501e-09,1)
v3: Removing PWL point (2.521e-09,0)
v3: Removing PWL point (2.541e-09,1)
v3: Removing PWL point (2.561e-09,0)
v3: Removing PWL point (2.74e-09,1)
v3: Removing PWL point (2.761e-09,0)
v3: Removing PWL point (2.781e-09,1)
v3: Removing PWL point (2.84e-09,0)
v3: Removing PWL point (3.08e-09,1)
v3: Removing PWL point (3.1e-09,0)
v3: Removing PWL point (3.261e-09,1)
v3: Removing PWL point (3.281e-09,0)
v3: Removing PWL point (3.32e-09,1)
v3: Removing PWL point (3.34e-09,0)
v3: Removing PWL point (3.381e-09,1)
v3: Removing PWL point (3.401e-09,0)
v3: Removing PWL point (3.521e-09,1)
v3: Removing PWL point (3.541e-09,0)
v3: Removing PWL point (3.661e-09,1)
v3: Removing PWL point (3.681e-09,0)
v3: Removing PWL point (3.7e-09,1)
v3: Removing PWL point (3.721e-09,0)
v3: Removing PWL point (3.82e-09,1)
v3: Removing PWL point (3.841e-09,0)
v3: Removing PWL point (3.981e-09,1)
v3: Removing PWL point (4e-09,0)
v3: Removing PWL point (4.021e-09,1)
v3: Removing PWL point (4.041e-09,0)
v3: Removing PWL point (4.101e-09,1)
v3: Removing PWL point (4.14e-09,0)
v3: Removing PWL point (4.24e-09,1)
v3: Removing PWL point (4.301e-09,0)
v3: Removing PWL point (4.321e-09,1)
v3: Removing PWL point (4.341e-09,0)
v3: Removing PWL point (4.38e-09,1)
v3: Removing PWL point (4.401e-09,0)
v3: Removing PWL point (4.521e-09,1)
v3: Removing PWL point (4.561e-09,0)
v3: Removing PWL point (4.581e-09,1)
v3: Removing PWL point (4.641e-09,0)
v3: Removing PWL point (4.681e-09,1)
v3: Removing PWL point (4.701e-09,0)
v3: Removing PWL point (4.761e-09,1)
v3: Removing PWL point (4.801e-09,0)
v3: Removing PWL point (4.821e-09,1)
v3: Removing PWL point (4.841e-09,0)
v3: Removing PWL point (4.86e-09,1)
v3: Removing PWL point (4.881e-09,0)
v3: Removing PWL point (4.921e-09,1)
v3: Removing PWL point (4.941e-09,0)
v3: Removing PWL point (5.041e-09,1)
v3: Removing PWL point (5.061e-09,0)
v3: Removing PWL point (5.1e-09,1)
v3: Removing PWL point (5.161e-09,0)
v3: Removing PWL point (5.181e-09,1)
v3: Removing PWL point (5.24e-09,0)
v3: Removing PWL point (5.401e-09,1)
v3: Removing PWL point (5.421e-09,0)
v3: Removing PWL point (5.461e-09,1)
v3: Removing PWL point (5.48e-09,0)
v3: Removing PWL point (5.501e-09,1)
v3: Removing PWL point (5.521e-09,0)
v3: Removing PWL point (5.58e-09,1)
v3: Removing PWL point (5.621e-09,0)
v3: Removing PWL point (5.741e-09,1)
v3: Removing PWL point (5.761e-09,0)
v3: Removing PWL point (5.781e-09,1)
v3: Removing PWL point (5.801e-09,0)
v3: Removing PWL point (5.82e-09,1)
v3: Removing PWL point (5.841e-09,0)
v3: Removing PWL point (5.881e-09,1)
v3: Removing PWL point (5.901e-09,0)
v3: Removing PWL point (6.001e-09,1)
v3: Removing PWL point (6.081e-09,0)
v3: Removing PWL point (6.16e-09,1)
v3: Removing PWL point (6.2e-09,0)
v3: Removing PWL point (6.221e-09,1)
v3: Removing PWL point (6.241e-09,0)
v3: Removing PWL point (6.261e-09,1)
v3: Removing PWL point (6.3e-09,0)
v3: Removing PWL point (6.341e-09,1)
v3: Removing PWL point (6.361e-09,0)
v5: Removing PWL point (1e-12,0)
v5: Removing PWL point (1.81e-10,1)
v5: Removing PWL point (2e-10,0)
v5: Removing PWL point (2.61e-10,1)
v5: Removing PWL point (2.8e-10,0)
v5: Removing PWL point (3.21e-10,1)
v5: Removing PWL point (3.81e-10,0)
v5: Removing PWL point (4e-10,1)
v5: Removing PWL point (4.21e-10,0)
v5: Removing PWL point (4.41e-10,1)
v5: Removing PWL point (4.61e-10,0)
v5: Removing PWL point (8e-10,1)
v5: Removing PWL point (8.21e-10,0)
v5: Removing PWL point (8.41e-10,1)
v5: Removing PWL point (8.6e-10,0)
v5: Removing PWL point (9.81e-10,1)
v5: Removing PWL point (1.021e-09,0)
v5: Removing PWL point (1.06e-09,1)
v5: Removing PWL point (1.101e-09,0)
v5: Removing PWL point (1.12e-09,1)
v5: Removing PWL point (1.141e-09,0)
v5: Removing PWL point (1.161e-09,1)
v5: Removing PWL point (1.18e-09,0)
v5: Removing PWL point (1.24e-09,1)
v5: Removing PWL point (1.261e-09,0)
v5: Removing PWL point (1.3e-09,1)
v5: Removing PWL point (1.321e-09,0)
v5: Removing PWL point (1.561e-09,1)
v5: Removing PWL point (1.581e-09,0)
v5: Removing PWL point (1.6e-09,1)
v5: Removing PWL point (1.641e-09,0)
v5: Removing PWL point (1.66e-09,1)
v5: Removing PWL point (1.681e-09,0)
v5: Removing PWL point (1.78e-09,1)
v5: Removing PWL point (1.801e-09,0)
v5: Removing PWL point (1.961e-09,1)
v5: Removing PWL point (2.021e-09,0)
v5: Removing PWL point (2.101e-09,1)
v5: Removing PWL point (2.161e-09,0)
v5: Removing PWL point (2.201e-09,1)
v5: Removing PWL point (2.24e-09,0)
v5: Removing PWL point (2.281e-09,1)
v5: Removing PWL point (2.301e-09,0)
v5: Removing PWL point (2.48e-09,1)
v5: Removing PWL point (2.501e-09,0)
v5: Removing PWL point (2.521e-09,1)
v5: Removing PWL point (2.541e-09,0)
v5: Removing PWL point (2.6e-09,1)
v5: Removing PWL point (2.62e-09,0)
v5: Removing PWL point (2.641e-09,1)
v5: Removing PWL point (2.681e-09,0)
v5: Removing PWL point (2.701e-09,1)
v5: Removing PWL point (2.74e-09,0)
v5: Removing PWL point (2.84e-09,1)
v5: Removing PWL point (2.881e-09,0)
v5: Removing PWL point (2.921e-09,1)
v5: Removing PWL point (2.941e-09,0)
v5: Removing PWL point (2.96e-09,1)
v5: Removing PWL point (3.001e-09,0)
v5: Removing PWL point (3.021e-09,1)
v5: Removing PWL point (3.041e-09,0)
v5: Removing PWL point (3.121e-09,1)
v5: Removing PWL point (3.161e-09,0)
v5: Removing PWL point (3.181e-09,1)
v5: Removing PWL point (3.2e-09,0)
v5: Removing PWL point (3.22e-09,1)
v5: Removing PWL point (3.261e-09,0)
v5: Removing PWL point (3.301e-09,1)
v5: Removing PWL point (3.32e-09,0)
v5: Removing PWL point (3.44e-09,1)
v5: Removing PWL point (3.46e-09,0)
v5: Removing PWL point (3.541e-09,1)
v5: Removing PWL point (3.641e-09,0)
v5: Removing PWL point (3.681e-09,1)
v5: Removing PWL point (3.7e-09,0)
v5: Removing PWL point (3.76e-09,1)
v5: Removing PWL point (3.781e-09,0)
v5: Removing PWL point (3.941e-09,1)
v5: Removing PWL point (3.981e-09,0)
v5: Removing PWL point (4.041e-09,1)
v5: Removing PWL point (4.06e-09,0)
v5: Removing PWL point (4.14e-09,1)
v5: Removing PWL point (4.201e-09,0)
v5: Removing PWL point (4.221e-09,1)
v5: Removing PWL point (4.24e-09,0)
v5: Removing PWL point (4.341e-09,1)
v5: Removing PWL point (4.38e-09,0)
v5: Removing PWL point (4.401e-09,1)
v5: Removing PWL point (4.501e-09,0)
v5: Removing PWL point (4.561e-09,1)
v5: Removing PWL point (4.581e-09,0)
v5: Removing PWL point (4.641e-09,1)
v5: Removing PWL point (4.681e-09,0)
v5: Removing PWL point (4.701e-09,1)
v5: Removing PWL point (4.72e-09,0)
v5: Removing PWL point (4.801e-09,1)
v5: Removing PWL point (4.821e-09,0)
v5: Removing PWL point (4.881e-09,1)
v5: Removing PWL point (4.921e-09,0)
v5: Removing PWL point (4.96e-09,1)
v5: Removing PWL point (5.001e-09,0)
v5: Removing PWL point (5.021e-09,1)
v5: Removing PWL point (5.041e-09,0)
v5: Removing PWL point (5.081e-09,1)
v5: Removing PWL point (5.1e-09,0)
v5: Removing PWL point (5.161e-09,1)
v5: Removing PWL point (5.181e-09,0)
v5: Removing PWL point (5.24e-09,1)
v5: Removing PWL point (5.281e-09,0)
v5: Removing PWL point (5.301e-09,1)
v5: Removing PWL point (5.34e-09,0)
v5: Removing PWL point (5.381e-09,1)
v5: Removing PWL point (5.401e-09,0)
v5: Removing PWL point (5.44e-09,1)
v5: Removing PWL point (5.461e-09,0)
v5: Removing PWL point (5.48e-09,1)
v5: Removing PWL point (5.501e-09,0)
v5: Removing PWL point (5.521e-09,1)
v5: Removing PWL point (5.561e-09,0)
v5: Removing PWL point (5.621e-09,1)
v5: Removing PWL point (5.68e-09,0)
v5: Removing PWL point (5.801e-09,1)
v5: Removing PWL point (5.82e-09,0)
v5: Removing PWL point (5.841e-09,1)
v5: Removing PWL point (5.881e-09,0)
v5: Removing PWL point (5.901e-09,1)
v5: Removing PWL point (5.941e-09,0)
v5: Removing PWL point (5.981e-09,1)
v5: Removing PWL point (6.001e-09,0)
v5: Removing PWL point (6.141e-09,1)
v5: Removing PWL point (6.16e-09,0)
v5: Removing PWL point (6.361e-09,1)
v6: Removing PWL point (1e-12,0)
v6: Removing PWL point (2.1e-11,1)
v6: Removing PWL point (4.1e-11,0)
v6: Removing PWL point (6.1e-11,1)
v6: Removing PWL point (1.4e-10,0)
v6: Removing PWL point (2.21e-10,1)
v6: Removing PWL point (2.41e-10,0)
v6: Removing PWL point (4.61e-10,1)
v6: Removing PWL point (5.21e-10,0)
v6: Removing PWL point (5.41e-10,1)
v6: Removing PWL point (5.81e-10,0)
v6: Removing PWL point (7.21e-10,1)
v6: Removing PWL point (7.81e-10,0)
v6: Removing PWL point (8.21e-10,1)
v6: Removing PWL point (8.41e-10,0)
v6: Removing PWL point (8.81e-10,1)
v6: Removing PWL point (9.01e-10,0)
v6: Removing PWL point (9.4e-10,1)
v6: Removing PWL point (9.61e-10,0)
v6: Removing PWL point (1.021e-09,1)
v6: Removing PWL point (1.06e-09,0)
v6: Removing PWL point (1.101e-09,1)
v6: Removing PWL point (1.12e-09,0)
v6: Removing PWL point (1.18e-09,1)
v6: Removing PWL point (1.201e-09,0)
v6: Removing PWL point (1.221e-09,1)
v6: Removing PWL point (1.24e-09,0)
v6: Removing PWL point (1.281e-09,1)
v6: Removing PWL point (1.3e-09,0)
v6: Removing PWL point (1.321e-09,1)
v6: Removing PWL point (1.341e-09,0)
v6: Removing PWL point (1.36e-09,1)
v6: Removing PWL point (1.401e-09,0)
v6: Removing PWL point (1.42e-09,1)
v6: Removing PWL point (1.461e-09,0)
v6: Removing PWL point (1.641e-09,1)
v6: Removing PWL point (1.66e-09,0)
v6: Removing PWL point (1.681e-09,1)
v6: Removing PWL point (1.78e-09,0)
v6: Removing PWL point (1.921e-09,1)
v6: Removing PWL point (1.961e-09,0)
v6: Removing PWL point (2.021e-09,1)
v6: Removing PWL point (2.041e-09,0)
v6: Removing PWL point (2.24e-09,1)
v6: Removing PWL point (2.281e-09,0)
v6: Removing PWL point (2.301e-09,1)
v6: Removing PWL point (2.36e-09,0)
v6: Removing PWL point (2.381e-09,1)
v6: Removing PWL point (2.441e-09,0)
v6: Removing PWL point (2.501e-09,1)
v6: Removing PWL point (2.521e-09,0)
v6: Removing PWL point (2.541e-09,1)
v6: Removing PWL point (2.561e-09,0)
v6: Removing PWL point (2.74e-09,1)
v6: Removing PWL point (2.761e-09,0)
v6: Removing PWL point (2.781e-09,1)
v6: Removing PWL point (2.84e-09,0)
v6: Removing PWL point (3.08e-09,1)
v6: Removing PWL point (3.1e-09,0)
v6: Removing PWL point (3.261e-09,1)
v6: Removing PWL point (3.281e-09,0)
v6: Removing PWL point (3.32e-09,1)
v6: Removing PWL point (3.34e-09,0)
v6: Removing PWL point (3.381e-09,1)
v6: Removing PWL point (3.401e-09,0)
v6: Removing PWL point (3.521e-09,1)
v6: Removing PWL point (3.541e-09,0)
v6: Removing PWL point (3.661e-09,1)
v6: Removing PWL point (3.681e-09,0)
v6: Removing PWL point (3.7e-09,1)
v6: Removing PWL point (3.721e-09,0)
v6: Removing PWL point (3.82e-09,1)
v6: Removing PWL point (3.841e-09,0)
v6: Removing PWL point (3.981e-09,1)
v6: Removing PWL point (4e-09,0)
v6: Removing PWL point (4.021e-09,1)
v6: Removing PWL point (4.041e-09,0)
v6: Removing PWL point (4.101e-09,1)
v6: Removing PWL point (4.14e-09,0)
v6: Removing PWL point (4.24e-09,1)
v6: Removing PWL point (4.301e-09,0)
v6: Removing PWL point (4.321e-09,1)
v6: Removing PWL point (4.341e-09,0)
v6: Removing PWL point (4.38e-09,1)
v6: Removing PWL point (4.401e-09,0)
v6: Removing PWL point (4.521e-09,1)
v6: Removing PWL point (4.561e-09,0)
v6: Removing PWL point (4.581e-09,1)
v6: Removing PWL point (4.641e-09,0)
v6: Removing PWL point (4.681e-09,1)
v6: Removing PWL point (4.701e-09,0)
v6: Removing PWL point (4.761e-09,1)
v6: Removing PWL point (4.801e-09,0)
v6: Removing PWL point (4.821e-09,1)
v6: Removing PWL point (4.841e-09,0)
v6: Removing PWL point (4.86e-09,1)
v6: Removing PWL point (4.881e-09,0)
v6: Removing PWL point (4.921e-09,1)
v6: Removing PWL point (4.941e-09,0)
v6: Removing PWL point (5.041e-09,1)
v6: Removing PWL point (5.061e-09,0)
v6: Removing PWL point (5.1e-09,1)
v6: Removing PWL point (5.161e-09,0)
v6: Removing PWL point (5.181e-09,1)
v6: Removing PWL point (5.24e-09,0)
v6: Removing PWL point (5.401e-09,1)
v6: Removing PWL point (5.421e-09,0)
v6: Removing PWL point (5.461e-09,1)
v6: Removing PWL point (5.48e-09,0)
v6: Removing PWL point (5.501e-09,1)
v6: Removing PWL point (5.521e-09,0)
v6: Removing PWL point (5.58e-09,1)
v6: Removing PWL point (5.621e-09,0)
v6: Removing PWL point (5.741e-09,1)
v6: Removing PWL point (5.761e-09,0)
v6: Removing PWL point (5.781e-09,1)
v6: Removing PWL point (5.801e-09,0)
v6: Removing PWL point (5.82e-09,1)
v6: Removing PWL point (5.841e-09,0)
v6: Removing PWL point (5.881e-09,1)
v6: Removing PWL point (5.901e-09,0)
v6: Removing PWL point (6.001e-09,1)
v6: Removing PWL point (6.081e-09,0)
v6: Removing PWL point (6.16e-09,1)
v6: Removing PWL point (6.2e-09,0)
v6: Removing PWL point (6.221e-09,1)
v6: Removing PWL point (6.241e-09,0)
v6: Removing PWL point (6.261e-09,1)
v6: Removing PWL point (6.3e-09,0)
v6: Removing PWL point (6.341e-09,1)
v6: Removing PWL point (6.361e-09,0)
v8: Removing PWL point (1e-12,0)
v8: Removing PWL point (2.1e-11,1)
v8: Removing PWL point (6.1e-11,0)
v8: Removing PWL point (1.81e-10,1)
v8: Removing PWL point (2e-10,0)
v8: Removing PWL point (2.8e-10,1)
v8: Removing PWL point (3.01e-10,0)
v8: Removing PWL point (3.21e-10,1)
v8: Removing PWL point (3.4e-10,0)
v8: Removing PWL point (4.41e-10,1)
v8: Removing PWL point (4.61e-10,0)
v8: Removing PWL point (4.81e-10,1)
v8: Removing PWL point (5e-10,0)
v8: Removing PWL point (5.21e-10,1)
v8: Removing PWL point (5.41e-10,0)
v8: Removing PWL point (5.6e-10,1)
v8: Removing PWL point (5.81e-10,0)
v8: Removing PWL point (6.2e-10,1)
v8: Removing PWL point (6.41e-10,0)
v8: Removing PWL point (6.8e-10,1)
v8: Removing PWL point (7.01e-10,0)
v8: Removing PWL point (8e-10,1)
v8: Removing PWL point (8.21e-10,0)
v8: Removing PWL point (8.6e-10,1)
v8: Removing PWL point (8.81e-10,0)
v8: Removing PWL point (9.01e-10,1)
v8: Removing PWL point (9.21e-10,0)
v8: Removing PWL point (9.4e-10,1)
v8: Removing PWL point (9.61e-10,0)
v8: Removing PWL point (1.041e-09,1)
v8: Removing PWL point (1.06e-09,0)
v8: Removing PWL point (1.081e-09,1)
v8: Removing PWL point (1.101e-09,0)
v8: Removing PWL point (1.141e-09,1)
v8: Removing PWL point (1.201e-09,0)
v8: Removing PWL point (1.221e-09,1)
v8: Removing PWL point (1.24e-09,0)
v8: Removing PWL point (1.281e-09,1)
v8: Removing PWL point (1.3e-09,0)
v8: Removing PWL point (1.321e-09,1)
v8: Removing PWL point (1.36e-09,0)
v8: Removing PWL point (1.381e-09,1)
v8: Removing PWL point (1.401e-09,0)
v8: Removing PWL point (1.501e-09,1)
v8: Removing PWL point (1.521e-09,0)
v8: Removing PWL point (1.54e-09,1)
v8: Removing PWL point (1.561e-09,0)
v8: Removing PWL point (1.621e-09,1)
v8: Removing PWL point (1.641e-09,0)
v8: Removing PWL point (1.66e-09,1)
v8: Removing PWL point (1.681e-09,0)
v8: Removing PWL point (1.78e-09,1)
v8: Removing PWL point (1.821e-09,0)
v8: Removing PWL point (1.941e-09,1)
v8: Removing PWL point (1.961e-09,0)
v8: Removing PWL point (2.081e-09,1)
v8: Removing PWL point (2.101e-09,0)
v8: Removing PWL point (2.161e-09,1)
v8: Removing PWL point (2.181e-09,0)
v8: Removing PWL point (2.201e-09,1)
v8: Removing PWL point (2.221e-09,0)
v8: Removing PWL point (2.261e-09,1)
v8: Removing PWL point (2.281e-09,0)
v8: Removing PWL point (2.381e-09,1)
v8: Removing PWL point (2.401e-09,0)
v8: Removing PWL point (2.581e-09,1)
v8: Removing PWL point (2.6e-09,0)
v8: Removing PWL point (2.62e-09,1)
v8: Removing PWL point (2.641e-09,0)
v8: Removing PWL point (2.821e-09,1)
v8: Removing PWL point (2.84e-09,0)
v8: Removing PWL point (2.881e-09,1)
v8: Removing PWL point (2.901e-09,0)
v8: Removing PWL point (3.001e-09,1)
v8: Removing PWL point (3.041e-09,0)
v8: Removing PWL point (3.141e-09,1)
v8: Removing PWL point (3.161e-09,0)
v8: Removing PWL point (3.241e-09,1)
v8: Removing PWL point (3.261e-09,0)
v8: Removing PWL point (3.281e-09,1)
v8: Removing PWL point (3.32e-09,0)
v8: Removing PWL point (3.361e-09,1)
v8: Removing PWL point (3.46e-09,0)
v8: Removing PWL point (3.641e-09,1)
v8: Removing PWL point (3.661e-09,0)
v8: Removing PWL point (3.7e-09,1)
v8: Removing PWL point (3.721e-09,0)
v8: Removing PWL point (3.781e-09,1)
v8: Removing PWL point (3.86e-09,0)
v8: Removing PWL point (3.881e-09,1)
v8: Removing PWL point (3.9e-09,0)
v8: Removing PWL point (3.96e-09,1)
v8: Removing PWL point (3.981e-09,0)
v8: Removing PWL point (4e-09,1)
v8: Removing PWL point (4.021e-09,0)
v8: Removing PWL point (4.161e-09,1)
v8: Removing PWL point (4.181e-09,0)
v8: Removing PWL point (4.201e-09,1)
v8: Removing PWL point (4.221e-09,0)
v8: Removing PWL point (4.261e-09,1)
v8: Removing PWL point (4.281e-09,0)
v8: Removing PWL point (4.321e-09,1)
v8: Removing PWL point (4.341e-09,0)
v8: Removing PWL point (4.361e-09,1)
v8: Removing PWL point (4.401e-09,0)
v8: Removing PWL point (4.421e-09,1)
v8: Removing PWL point (4.441e-09,0)
v8: Removing PWL point (4.501e-09,1)
v8: Removing PWL point (4.521e-09,0)
v8: Removing PWL point (4.541e-09,1)
v8: Removing PWL point (4.581e-09,0)
v8: Removing PWL point (4.601e-09,1)
v8: Removing PWL point (4.62e-09,0)
v8: Removing PWL point (4.661e-09,1)
v8: Removing PWL point (4.701e-09,0)
v8: Removing PWL point (4.781e-09,1)
v8: Removing PWL point (4.801e-09,0)
v8: Removing PWL point (4.821e-09,1)
v8: Removing PWL point (4.86e-09,0)
v8: Removing PWL point (5.061e-09,1)
v8: Removing PWL point (5.081e-09,0)
v8: Removing PWL point (5.161e-09,1)
v8: Removing PWL point (5.181e-09,0)
v8: Removing PWL point (5.321e-09,1)
v8: Removing PWL point (5.361e-09,0)
v8: Removing PWL point (5.44e-09,1)
v8: Removing PWL point (5.461e-09,0)
v8: Removing PWL point (5.561e-09,1)
v8: Removing PWL point (5.58e-09,0)
v8: Removing PWL point (5.601e-09,1)
v8: Removing PWL point (5.621e-09,0)
v8: Removing PWL point (5.741e-09,1)
v8: Removing PWL point (5.781e-09,0)
v8: Removing PWL point (5.82e-09,1)
v8: Removing PWL point (5.861e-09,0)
v8: Removing PWL point (5.881e-09,1)
v8: Removing PWL point (5.901e-09,0)
v8: Removing PWL point (5.92e-09,1)
v8: Removing PWL point (6.021e-09,0)
v8: Removing PWL point (6.06e-09,1)
v8: Removing PWL point (6.081e-09,0)
v8: Removing PWL point (6.2e-09,1)
v8: Removing PWL point (6.221e-09,0)
v8: Removing PWL point (6.281e-09,1)
v8: Removing PWL point (6.3e-09,0)
v8: Removing PWL point (6.321e-09,1)
v8: Removing PWL point (6.341e-09,0)
v9: Removing PWL point (1e-12,1)
v9: Removing PWL point (2.1e-11,0)
v9: Removing PWL point (6.1e-11,1)
v9: Removing PWL point (1.81e-10,0)
v9: Removing PWL point (2.21e-10,1)
v9: Removing PWL point (2.41e-10,0)
v9: Removing PWL point (2.61e-10,1)
v9: Removing PWL point (2.8e-10,0)
v9: Removing PWL point (3.4e-10,1)
v9: Removing PWL point (3.61e-10,0)
v9: Removing PWL point (3.81e-10,1)
v9: Removing PWL point (4e-10,0)
v9: Removing PWL point (4.21e-10,1)
v9: Removing PWL point (4.41e-10,0)
v9: Removing PWL point (5e-10,1)
v9: Removing PWL point (5.21e-10,0)
v9: Removing PWL point (5.41e-10,1)
v9: Removing PWL point (5.6e-10,0)
v9: Removing PWL point (6.01e-10,1)
v9: Removing PWL point (6.2e-10,0)
v9: Removing PWL point (6.41e-10,1)
v9: Removing PWL point (6.8e-10,0)
v9: Removing PWL point (7.01e-10,1)
v9: Removing PWL point (7.21e-10,0)
v9: Removing PWL point (7.4e-10,1)
v9: Removing PWL point (7.61e-10,0)
v9: Removing PWL point (7.81e-10,1)
v9: Removing PWL point (8e-10,0)
v9: Removing PWL point (8.81e-10,1)
v9: Removing PWL point (9.01e-10,0)
v9: Removing PWL point (1.021e-09,1)
v9: Removing PWL point (1.041e-09,0)
v9: Removing PWL point (1.06e-09,1)
v9: Removing PWL point (1.081e-09,0)
v9: Removing PWL point (1.12e-09,1)
v9: Removing PWL point (1.141e-09,0)
v9: Removing PWL point (1.201e-09,1)
v9: Removing PWL point (1.221e-09,0)
v9: Removing PWL point (1.24e-09,1)
v9: Removing PWL point (1.281e-09,0)
v9: Removing PWL point (1.3e-09,1)
v9: Removing PWL point (1.321e-09,0)
v9: Removing PWL point (1.401e-09,1)
v9: Removing PWL point (1.42e-09,0)
v9: Removing PWL point (1.441e-09,1)
v9: Removing PWL point (1.501e-09,0)
v9: Removing PWL point (1.521e-09,1)
v9: Removing PWL point (1.54e-09,0)
v9: Removing PWL point (1.641e-09,1)
v9: Removing PWL point (1.66e-09,0)
v9: Removing PWL point (1.72e-09,1)
v9: Removing PWL point (1.741e-09,0)
v9: Removing PWL point (1.761e-09,1)
v9: Removing PWL point (1.78e-09,0)
v9: Removing PWL point (1.88e-09,1)
v9: Removing PWL point (1.921e-09,0)
v9: Removing PWL point (1.961e-09,1)
v9: Removing PWL point (1.98e-09,0)
v9: Removing PWL point (2.021e-09,1)
v9: Removing PWL point (2.061e-09,0)
v9: Removing PWL point (2.141e-09,1)
v9: Removing PWL point (2.161e-09,0)
v9: Removing PWL point (2.181e-09,1)
v9: Removing PWL point (2.201e-09,0)
v9: Removing PWL point (2.281e-09,1)
v9: Removing PWL point (2.301e-09,0)
v9: Removing PWL point (2.321e-09,1)
v9: Removing PWL point (2.341e-09,0)
v9: Removing PWL point (2.48e-09,1)
v9: Removing PWL point (2.541e-09,0)
v9: Removing PWL point (2.561e-09,1)
v9: Removing PWL point (2.581e-09,0)
v9: Removing PWL point (2.6e-09,1)
v9: Removing PWL point (2.62e-09,0)
v9: Removing PWL point (2.641e-09,1)
v9: Removing PWL point (2.661e-09,0)
v9: Removing PWL point (2.681e-09,1)
v9: Removing PWL point (2.701e-09,0)
v9: Removing PWL point (2.74e-09,1)
v9: Removing PWL point (2.761e-09,0)
v9: Removing PWL point (2.781e-09,1)
v9: Removing PWL point (2.821e-09,0)
v9: Removing PWL point (2.86e-09,1)
v9: Removing PWL point (2.881e-09,0)
v9: Removing PWL point (2.901e-09,1)
v9: Removing PWL point (2.96e-09,0)
v9: Removing PWL point (2.98e-09,1)
v9: Removing PWL point (3.001e-09,0)
v9: Removing PWL point (3.041e-09,1)
v9: Removing PWL point (3.061e-09,0)
v9: Removing PWL point (3.121e-09,1)
v9: Removing PWL point (3.141e-09,0)
v9: Removing PWL point (3.161e-09,1)
v9: Removing PWL point (3.181e-09,0)
v9: Removing PWL point (3.2e-09,1)
v9: Removing PWL point (3.241e-09,0)
v9: Removing PWL point (3.261e-09,1)
v9: Removing PWL point (3.281e-09,0)
v9: Removing PWL point (3.32e-09,1)
v9: Removing PWL point (3.34e-09,0)
v9: Removing PWL point (3.501e-09,1)
v9: Removing PWL point (3.58e-09,0)
v9: Removing PWL point (3.621e-09,1)
v9: Removing PWL point (3.641e-09,0)
v9: Removing PWL point (3.681e-09,1)
v9: Removing PWL point (3.7e-09,0)
v9: Removing PWL point (3.741e-09,1)
v9: Removing PWL point (3.76e-09,0)
v9: Removing PWL point (3.86e-09,1)
v9: Removing PWL point (3.881e-09,0)
v9: Removing PWL point (3.9e-09,1)
v9: Removing PWL point (3.921e-09,0)
v9: Removing PWL point (3.941e-09,1)
v9: Removing PWL point (3.96e-09,0)
v9: Removing PWL point (3.981e-09,1)
v9: Removing PWL point (4e-09,0)
v9: Removing PWL point (4.14e-09,1)
v9: Removing PWL point (4.161e-09,0)
v9: Removing PWL point (4.181e-09,1)
v9: Removing PWL point (4.201e-09,0)
v9: Removing PWL point (4.281e-09,1)
v9: Removing PWL point (4.321e-09,0)
v9: Removing PWL point (4.401e-09,1)
v9: Removing PWL point (4.421e-09,0)
v9: Removing PWL point (4.441e-09,1)
v9: Removing PWL point (4.48e-09,0)
v9: Removing PWL point (4.581e-09,1)
v9: Removing PWL point (4.601e-09,0)
v9: Removing PWL point (4.641e-09,1)
v9: Removing PWL point (4.661e-09,0)
v9: Removing PWL point (4.701e-09,1)
v9: Removing PWL point (4.72e-09,0)
v9: Removing PWL point (4.741e-09,1)
v9: Removing PWL point (4.761e-09,0)
v9: Removing PWL point (4.801e-09,1)
v9: Removing PWL point (4.821e-09,0)
v9: Removing PWL point (4.881e-09,1)
v9: Removing PWL point (4.901e-09,0)
v9: Removing PWL point (4.96e-09,1)
v9: Removing PWL point (5.061e-09,0)
v9: Removing PWL point (5.081e-09,1)
v9: Removing PWL point (5.121e-09,0)
v9: Removing PWL point (5.141e-09,1)
v9: Removing PWL point (5.161e-09,0)
v9: Removing PWL point (5.181e-09,1)
v9: Removing PWL point (5.2e-09,0)
v9: Removing PWL point (5.24e-09,1)
v9: Removing PWL point (5.261e-09,0)
v9: Removing PWL point (5.301e-09,1)
v9: Removing PWL point (5.321e-09,0)
v9: Removing PWL point (5.381e-09,1)
v9: Removing PWL point (5.401e-09,0)
v9: Removing PWL point (5.421e-09,1)
v9: Removing PWL point (5.44e-09,0)
v9: Removing PWL point (5.48e-09,1)
v9: Removing PWL point (5.501e-09,0)
v9: Removing PWL point (5.541e-09,1)
v9: Removing PWL point (5.561e-09,0)
v9: Removing PWL point (5.58e-09,1)
v9: Removing PWL point (5.601e-09,0)
v9: Removing PWL point (5.661e-09,1)
v9: Removing PWL point (5.68e-09,0)
v9: Removing PWL point (5.72e-09,1)
v9: Removing PWL point (5.741e-09,0)
v9: Removing PWL point (5.781e-09,1)
v9: Removing PWL point (5.82e-09,0)
v9: Removing PWL point (6.021e-09,1)
v9: Removing PWL point (6.06e-09,0)
v9: Removing PWL point (6.141e-09,1)
v9: Removing PWL point (6.181e-09,0)
v9: Removing PWL point (6.221e-09,1)
v9: Removing PWL point (6.241e-09,0)
v9: Removing PWL point (6.361e-09,1)
v11: Removing PWL point (1e-12,0)
v11: Removing PWL point (2.1e-11,1)
v11: Removing PWL point (6.1e-11,0)
v11: Removing PWL point (1.81e-10,1)
v11: Removing PWL point (2e-10,0)
v11: Removing PWL point (2.8e-10,1)
v11: Removing PWL point (3.01e-10,0)
v11: Removing PWL point (3.21e-10,1)
v11: Removing PWL point (3.4e-10,0)
v11: Removing PWL point (4.41e-10,1)
v11: Removing PWL point (4.61e-10,0)
v11: Removing PWL point (4.81e-10,1)
v11: Removing PWL point (5e-10,0)
v11: Removing PWL point (5.21e-10,1)
v11: Removing PWL point (5.41e-10,0)
v11: Removing PWL point (5.6e-10,1)
v11: Removing PWL point (5.81e-10,0)
v11: Removing PWL point (6.2e-10,1)
v11: Removing PWL point (6.41e-10,0)
v11: Removing PWL point (6.8e-10,1)
v11: Removing PWL point (7.01e-10,0)
v11: Removing PWL point (8e-10,1)
v11: Removing PWL point (8.21e-10,0)
v11: Removing PWL point (8.6e-10,1)
v11: Removing PWL point (8.81e-10,0)
v11: Removing PWL point (9.01e-10,1)
v11: Removing PWL point (9.21e-10,0)
v11: Removing PWL point (9.4e-10,1)
v11: Removing PWL point (9.61e-10,0)
v11: Removing PWL point (1.041e-09,1)
v11: Removing PWL point (1.06e-09,0)
v11: Removing PWL point (1.081e-09,1)
v11: Removing PWL point (1.101e-09,0)
v11: Removing PWL point (1.141e-09,1)
v11: Removing PWL point (1.201e-09,0)
v11: Removing PWL point (1.221e-09,1)
v11: Removing PWL point (1.24e-09,0)
v11: Removing PWL point (1.281e-09,1)
v11: Removing PWL point (1.3e-09,0)
v11: Removing PWL point (1.321e-09,1)
v11: Removing PWL point (1.36e-09,0)
v11: Removing PWL point (1.381e-09,1)
v11: Removing PWL point (1.401e-09,0)
v11: Removing PWL point (1.501e-09,1)
v11: Removing PWL point (1.521e-09,0)
v11: Removing PWL point (1.54e-09,1)
v11: Removing PWL point (1.561e-09,0)
v11: Removing PWL point (1.621e-09,1)
v11: Removing PWL point (1.641e-09,0)
v11: Removing PWL point (1.66e-09,1)
v11: Removing PWL point (1.681e-09,0)
v11: Removing PWL point (1.78e-09,1)
v11: Removing PWL point (1.821e-09,0)
v11: Removing PWL point (1.941e-09,1)
v11: Removing PWL point (1.961e-09,0)
v11: Removing PWL point (2.081e-09,1)
v11: Removing PWL point (2.101e-09,0)
v11: Removing PWL point (2.161e-09,1)
v11: Removing PWL point (2.181e-09,0)
v11: Removing PWL point (2.201e-09,1)
v11: Removing PWL point (2.221e-09,0)
v11: Removing PWL point (2.261e-09,1)
v11: Removing PWL point (2.281e-09,0)
v11: Removing PWL point (2.381e-09,1)
v11: Removing PWL point (2.401e-09,0)
v11: Removing PWL point (2.581e-09,1)
v11: Removing PWL point (2.6e-09,0)
v11: Removing PWL point (2.62e-09,1)
v11: Removing PWL point (2.641e-09,0)
v11: Removing PWL point (2.821e-09,1)
v11: Removing PWL point (2.84e-09,0)
v11: Removing PWL point (2.881e-09,1)
v11: Removing PWL point (2.901e-09,0)
v11: Removing PWL point (3.001e-09,1)
v11: Removing PWL point (3.041e-09,0)
v11: Removing PWL point (3.141e-09,1)
v11: Removing PWL point (3.161e-09,0)
v11: Removing PWL point (3.241e-09,1)
v11: Removing PWL point (3.261e-09,0)
v11: Removing PWL point (3.281e-09,1)
v11: Removing PWL point (3.32e-09,0)
v11: Removing PWL point (3.361e-09,1)
v11: Removing PWL point (3.46e-09,0)
v11: Removing PWL point (3.641e-09,1)
v11: Removing PWL point (3.661e-09,0)
v11: Removing PWL point (3.7e-09,1)
v11: Removing PWL point (3.721e-09,0)
v11: Removing PWL point (3.781e-09,1)
v11: Removing PWL point (3.86e-09,0)
v11: Removing PWL point (3.881e-09,1)
v11: Removing PWL point (3.9e-09,0)
v11: Removing PWL point (3.96e-09,1)
v11: Removing PWL point (3.981e-09,0)
v11: Removing PWL point (4e-09,1)
v11: Removing PWL point (4.021e-09,0)
v11: Removing PWL point (4.161e-09,1)
v11: Removing PWL point (4.181e-09,0)
v11: Removing PWL point (4.201e-09,1)
v11: Removing PWL point (4.221e-09,0)
v11: Removing PWL point (4.261e-09,1)
v11: Removing PWL point (4.281e-09,0)
v11: Removing PWL point (4.321e-09,1)
v11: Removing PWL point (4.341e-09,0)
v11: Removing PWL point (4.361e-09,1)
v11: Removing PWL point (4.401e-09,0)
v11: Removing PWL point (4.421e-09,1)
v11: Removing PWL point (4.441e-09,0)
v11: Removing PWL point (4.501e-09,1)
v11: Removing PWL point (4.521e-09,0)
v11: Removing PWL point (4.541e-09,1)
v11: Removing PWL point (4.581e-09,0)
v11: Removing PWL point (4.601e-09,1)
v11: Removing PWL point (4.62e-09,0)
v11: Removing PWL point (4.661e-09,1)
v11: Removing PWL point (4.701e-09,0)
v11: Removing PWL point (4.781e-09,1)
v11: Removing PWL point (4.801e-09,0)
v11: Removing PWL point (4.821e-09,1)
v11: Removing PWL point (4.86e-09,0)
v11: Removing PWL point (5.061e-09,1)
v11: Removing PWL point (5.081e-09,0)
v11: Removing PWL point (5.161e-09,1)
v11: Removing PWL point (5.181e-09,0)
v11: Removing PWL point (5.321e-09,1)
v11: Removing PWL point (5.361e-09,0)
v11: Removing PWL point (5.44e-09,1)
v11: Removing PWL point (5.461e-09,0)
v11: Removing PWL point (5.561e-09,1)
v11: Removing PWL point (5.58e-09,0)
v11: Removing PWL point (5.601e-09,1)
v11: Removing PWL point (5.621e-09,0)
v11: Removing PWL point (5.741e-09,1)
v11: Removing PWL point (5.781e-09,0)
v11: Removing PWL point (5.82e-09,1)
v11: Removing PWL point (5.861e-09,0)
v11: Removing PWL point (5.881e-09,1)
v11: Removing PWL point (5.901e-09,0)
v11: Removing PWL point (5.92e-09,1)
v11: Removing PWL point (6.021e-09,0)
v11: Removing PWL point (6.06e-09,1)
v11: Removing PWL point (6.081e-09,0)
v11: Removing PWL point (6.2e-09,1)
v11: Removing PWL point (6.221e-09,0)
v11: Removing PWL point (6.281e-09,1)
v11: Removing PWL point (6.3e-09,0)
v11: Removing PWL point (6.321e-09,1)
v11: Removing PWL point (6.341e-09,0)
v12: Removing PWL point (1e-12,1)
v12: Removing PWL point (2.1e-11,0)
v12: Removing PWL point (6.1e-11,1)
v12: Removing PWL point (1.81e-10,0)
v12: Removing PWL point (2.21e-10,1)
v12: Removing PWL point (2.41e-10,0)
v12: Removing PWL point (2.61e-10,1)
v12: Removing PWL point (2.8e-10,0)
v12: Removing PWL point (3.4e-10,1)
v12: Removing PWL point (3.61e-10,0)
v12: Removing PWL point (3.81e-10,1)
v12: Removing PWL point (4e-10,0)
v12: Removing PWL point (4.21e-10,1)
v12: Removing PWL point (4.41e-10,0)
v12: Removing PWL point (5e-10,1)
v12: Removing PWL point (5.21e-10,0)
v12: Removing PWL point (5.41e-10,1)
v12: Removing PWL point (5.6e-10,0)
v12: Removing PWL point (6.01e-10,1)
v12: Removing PWL point (6.2e-10,0)
v12: Removing PWL point (6.41e-10,1)
v12: Removing PWL point (6.8e-10,0)
v12: Removing PWL point (7.01e-10,1)
v12: Removing PWL point (7.21e-10,0)
v12: Removing PWL point (7.4e-10,1)
v12: Removing PWL point (7.61e-10,0)
v12: Removing PWL point (7.81e-10,1)
v12: Removing PWL point (8e-10,0)
v12: Removing PWL point (8.81e-10,1)
v12: Removing PWL point (9.01e-10,0)
v12: Removing PWL point (1.021e-09,1)
v12: Removing PWL point (1.041e-09,0)
v12: Removing PWL point (1.06e-09,1)
v12: Removing PWL point (1.081e-09,0)
v12: Removing PWL point (1.12e-09,1)
v12: Removing PWL point (1.141e-09,0)
v12: Removing PWL point (1.201e-09,1)
v12: Removing PWL point (1.221e-09,0)
v12: Removing PWL point (1.24e-09,1)
v12: Removing PWL point (1.281e-09,0)
v12: Removing PWL point (1.3e-09,1)
v12: Removing PWL point (1.321e-09,0)
v12: Removing PWL point (1.401e-09,1)
v12: Removing PWL point (1.42e-09,0)
v12: Removing PWL point (1.441e-09,1)
v12: Removing PWL point (1.501e-09,0)
v12: Removing PWL point (1.521e-09,1)
v12: Removing PWL point (1.54e-09,0)
v12: Removing PWL point (1.641e-09,1)
v12: Removing PWL point (1.66e-09,0)
v12: Removing PWL point (1.72e-09,1)
v12: Removing PWL point (1.741e-09,0)
v12: Removing PWL point (1.761e-09,1)
v12: Removing PWL point (1.78e-09,0)
v12: Removing PWL point (1.88e-09,1)
v12: Removing PWL point (1.921e-09,0)
v12: Removing PWL point (1.961e-09,1)
v12: Removing PWL point (1.98e-09,0)
v12: Removing PWL point (2.021e-09,1)
v12: Removing PWL point (2.061e-09,0)
v12: Removing PWL point (2.141e-09,1)
v12: Removing PWL point (2.161e-09,0)
v12: Removing PWL point (2.181e-09,1)
v12: Removing PWL point (2.201e-09,0)
v12: Removing PWL point (2.281e-09,1)
v12: Removing PWL point (2.301e-09,0)
v12: Removing PWL point (2.321e-09,1)
v12: Removing PWL point (2.341e-09,0)
v12: Removing PWL point (2.48e-09,1)
v12: Removing PWL point (2.541e-09,0)
v12: Removing PWL point (2.561e-09,1)
v12: Removing PWL point (2.581e-09,0)
v12: Removing PWL point (2.6e-09,1)
v12: Removing PWL point (2.62e-09,0)
v12: Removing PWL point (2.641e-09,1)
v12: Removing PWL point (2.661e-09,0)
v12: Removing PWL point (2.681e-09,1)
v12: Removing PWL point (2.701e-09,0)
v12: Removing PWL point (2.74e-09,1)
v12: Removing PWL point (2.761e-09,0)
v12: Removing PWL point (2.781e-09,1)
v12: Removing PWL point (2.821e-09,0)
v12: Removing PWL point (2.86e-09,1)
v12: Removing PWL point (2.881e-09,0)
v12: Removing PWL point (2.901e-09,1)
v12: Removing PWL point (2.96e-09,0)
v12: Removing PWL point (2.98e-09,1)
v12: Removing PWL point (3.001e-09,0)
v12: Removing PWL point (3.041e-09,1)
v12: Removing PWL point (3.061e-09,0)
v12: Removing PWL point (3.121e-09,1)
v12: Removing PWL point (3.141e-09,0)
v12: Removing PWL point (3.161e-09,1)
v12: Removing PWL point (3.181e-09,0)
v12: Removing PWL point (3.2e-09,1)
v12: Removing PWL point (3.241e-09,0)
v12: Removing PWL point (3.261e-09,1)
v12: Removing PWL point (3.281e-09,0)
v12: Removing PWL point (3.32e-09,1)
v12: Removing PWL point (3.34e-09,0)
v12: Removing PWL point (3.501e-09,1)
v12: Removing PWL point (3.58e-09,0)
v12: Removing PWL point (3.621e-09,1)
v12: Removing PWL point (3.641e-09,0)
v12: Removing PWL point (3.681e-09,1)
v12: Removing PWL point (3.7e-09,0)
v12: Removing PWL point (3.741e-09,1)
v12: Removing PWL point (3.76e-09,0)
v12: Removing PWL point (3.86e-09,1)
v12: Removing PWL point (3.881e-09,0)
v12: Removing PWL point (3.9e-09,1)
v12: Removing PWL point (3.921e-09,0)
v12: Removing PWL point (3.941e-09,1)
v12: Removing PWL point (3.96e-09,0)
v12: Removing PWL point (3.981e-09,1)
v12: Removing PWL point (4e-09,0)
v12: Removing PWL point (4.14e-09,1)
v12: Removing PWL point (4.161e-09,0)
v12: Removing PWL point (4.181e-09,1)
v12: Removing PWL point (4.201e-09,0)
v12: Removing PWL point (4.281e-09,1)
v12: Removing PWL point (4.321e-09,0)
v12: Removing PWL point (4.401e-09,1)
v12: Removing PWL point (4.421e-09,0)
v12: Removing PWL point (4.441e-09,1)
v12: Removing PWL point (4.48e-09,0)
v12: Removing PWL point (4.581e-09,1)
v12: Removing PWL point (4.601e-09,0)
v12: Removing PWL point (4.641e-09,1)
v12: Removing PWL point (4.661e-09,0)
v12: Removing PWL point (4.701e-09,1)
v12: Removing PWL point (4.72e-09,0)
v12: Removing PWL point (4.741e-09,1)
v12: Removing PWL point (4.761e-09,0)
v12: Removing PWL point (4.801e-09,1)
v12: Removing PWL point (4.821e-09,0)
v12: Removing PWL point (4.881e-09,1)
v12: Removing PWL point (4.901e-09,0)
v12: Removing PWL point (4.96e-09,1)
v12: Removing PWL point (5.061e-09,0)
v12: Removing PWL point (5.081e-09,1)
v12: Removing PWL point (5.121e-09,0)
v12: Removing PWL point (5.141e-09,1)
v12: Removing PWL point (5.161e-09,0)
v12: Removing PWL point (5.181e-09,1)
v12: Removing PWL point (5.2e-09,0)
v12: Removing PWL point (5.24e-09,1)
v12: Removing PWL point (5.261e-09,0)
v12: Removing PWL point (5.301e-09,1)
v12: Removing PWL point (5.321e-09,0)
v12: Removing PWL point (5.381e-09,1)
v12: Removing PWL point (5.401e-09,0)
v12: Removing PWL point (5.421e-09,1)
v12: Removing PWL point (5.44e-09,0)
v12: Removing PWL point (5.48e-09,1)
v12: Removing PWL point (5.501e-09,0)
v12: Removing PWL point (5.541e-09,1)
v12: Removing PWL point (5.561e-09,0)
v12: Removing PWL point (5.58e-09,1)
v12: Removing PWL point (5.601e-09,0)
v12: Removing PWL point (5.661e-09,1)
v12: Removing PWL point (5.68e-09,0)
v12: Removing PWL point (5.72e-09,1)
v12: Removing PWL point (5.741e-09,0)
v12: Removing PWL point (5.781e-09,1)
v12: Removing PWL point (5.82e-09,0)
v12: Removing PWL point (6.021e-09,1)
v12: Removing PWL point (6.06e-09,0)
v12: Removing PWL point (6.141e-09,1)
v12: Removing PWL point (6.181e-09,0)
v12: Removing PWL point (6.221e-09,1)
v12: Removing PWL point (6.241e-09,0)
v12: Removing PWL point (6.361e-09,1)
v14: Removing PWL point (1e-12,0)
v14: Removing PWL point (1.81e-10,1)
v14: Removing PWL point (2e-10,0)
v14: Removing PWL point (2.61e-10,1)
v14: Removing PWL point (2.8e-10,0)
v14: Removing PWL point (3.21e-10,1)
v14: Removing PWL point (3.81e-10,0)
v14: Removing PWL point (4e-10,1)
v14: Removing PWL point (4.21e-10,0)
v14: Removing PWL point (4.41e-10,1)
v14: Removing PWL point (4.61e-10,0)
v14: Removing PWL point (8e-10,1)
v14: Removing PWL point (8.21e-10,0)
v14: Removing PWL point (8.41e-10,1)
v14: Removing PWL point (8.6e-10,0)
v14: Removing PWL point (9.81e-10,1)
v14: Removing PWL point (1.021e-09,0)
v14: Removing PWL point (1.06e-09,1)
v14: Removing PWL point (1.101e-09,0)
v14: Removing PWL point (1.12e-09,1)
v14: Removing PWL point (1.141e-09,0)
v14: Removing PWL point (1.161e-09,1)
v14: Removing PWL point (1.18e-09,0)
v14: Removing PWL point (1.24e-09,1)
v14: Removing PWL point (1.261e-09,0)
v14: Removing PWL point (1.3e-09,1)
v14: Removing PWL point (1.321e-09,0)
v14: Removing PWL point (1.561e-09,1)
v14: Removing PWL point (1.581e-09,0)
v14: Removing PWL point (1.6e-09,1)
v14: Removing PWL point (1.641e-09,0)
v14: Removing PWL point (1.66e-09,1)
v14: Removing PWL point (1.681e-09,0)
v14: Removing PWL point (1.78e-09,1)
v14: Removing PWL point (1.801e-09,0)
v14: Removing PWL point (1.961e-09,1)
v14: Removing PWL point (2.021e-09,0)
v14: Removing PWL point (2.101e-09,1)
v14: Removing PWL point (2.161e-09,0)
v14: Removing PWL point (2.201e-09,1)
v14: Removing PWL point (2.24e-09,0)
v14: Removing PWL point (2.281e-09,1)
v14: Removing PWL point (2.301e-09,0)
v14: Removing PWL point (2.48e-09,1)
v14: Removing PWL point (2.501e-09,0)
v14: Removing PWL point (2.521e-09,1)
v14: Removing PWL point (2.541e-09,0)
v14: Removing PWL point (2.6e-09,1)
v14: Removing PWL point (2.62e-09,0)
v14: Removing PWL point (2.641e-09,1)
v14: Removing PWL point (2.681e-09,0)
v14: Removing PWL point (2.701e-09,1)
v14: Removing PWL point (2.74e-09,0)
v14: Removing PWL point (2.84e-09,1)
v14: Removing PWL point (2.881e-09,0)
v14: Removing PWL point (2.921e-09,1)
v14: Removing PWL point (2.941e-09,0)
v14: Removing PWL point (2.96e-09,1)
v14: Removing PWL point (3.001e-09,0)
v14: Removing PWL point (3.021e-09,1)
v14: Removing PWL point (3.041e-09,0)
v14: Removing PWL point (3.121e-09,1)
v14: Removing PWL point (3.161e-09,0)
v14: Removing PWL point (3.181e-09,1)
v14: Removing PWL point (3.2e-09,0)
v14: Removing PWL point (3.22e-09,1)
v14: Removing PWL point (3.261e-09,0)
v14: Removing PWL point (3.301e-09,1)
v14: Removing PWL point (3.32e-09,0)
v14: Removing PWL point (3.44e-09,1)
v14: Removing PWL point (3.46e-09,0)
v14: Removing PWL point (3.541e-09,1)
v14: Removing PWL point (3.641e-09,0)
v14: Removing PWL point (3.681e-09,1)
v14: Removing PWL point (3.7e-09,0)
v14: Removing PWL point (3.76e-09,1)
v14: Removing PWL point (3.781e-09,0)
v14: Removing PWL point (3.941e-09,1)
v14: Removing PWL point (3.981e-09,0)
v14: Removing PWL point (4.041e-09,1)
v14: Removing PWL point (4.06e-09,0)
v14: Removing PWL point (4.14e-09,1)
v14: Removing PWL point (4.201e-09,0)
v14: Removing PWL point (4.221e-09,1)
v14: Removing PWL point (4.24e-09,0)
v14: Removing PWL point (4.341e-09,1)
v14: Removing PWL point (4.38e-09,0)
v14: Removing PWL point (4.401e-09,1)
v14: Removing PWL point (4.501e-09,0)
v14: Removing PWL point (4.561e-09,1)
v14: Removing PWL point (4.581e-09,0)
v14: Removing PWL point (4.641e-09,1)
v14: Removing PWL point (4.681e-09,0)
v14: Removing PWL point (4.701e-09,1)
v14: Removing PWL point (4.72e-09,0)
v14: Removing PWL point (4.801e-09,1)
v14: Removing PWL point (4.821e-09,0)
v14: Removing PWL point (4.881e-09,1)
v14: Removing PWL point (4.921e-09,0)
v14: Removing PWL point (4.96e-09,1)
v14: Removing PWL point (5.001e-09,0)
v14: Removing PWL point (5.021e-09,1)
v14: Removing PWL point (5.041e-09,0)
v14: Removing PWL point (5.081e-09,1)
v14: Removing PWL point (5.1e-09,0)
v14: Removing PWL point (5.161e-09,1)
v14: Removing PWL point (5.181e-09,0)
v14: Removing PWL point (5.24e-09,1)
v14: Removing PWL point (5.281e-09,0)
v14: Removing PWL point (5.301e-09,1)
v14: Removing PWL point (5.34e-09,0)
v14: Removing PWL point (5.381e-09,1)
v14: Removing PWL point (5.401e-09,0)
v14: Removing PWL point (5.44e-09,1)
v14: Removing PWL point (5.461e-09,0)
v14: Removing PWL point (5.48e-09,1)
v14: Removing PWL point (5.501e-09,0)
v14: Removing PWL point (5.521e-09,1)
v14: Removing PWL point (5.561e-09,0)
v14: Removing PWL point (5.621e-09,1)
v14: Removing PWL point (5.68e-09,0)
v14: Removing PWL point (5.801e-09,1)
v14: Removing PWL point (5.82e-09,0)
v14: Removing PWL point (5.841e-09,1)
v14: Removing PWL point (5.881e-09,0)
v14: Removing PWL point (5.901e-09,1)
v14: Removing PWL point (5.941e-09,0)
v14: Removing PWL point (5.981e-09,1)
v14: Removing PWL point (6.001e-09,0)
v14: Removing PWL point (6.141e-09,1)
v14: Removing PWL point (6.16e-09,0)
v14: Removing PWL point (6.361e-09,1)
v15: Removing PWL point (1e-12,0)
v15: Removing PWL point (2.1e-11,1)
v15: Removing PWL point (4.1e-11,0)
v15: Removing PWL point (6.1e-11,1)
v15: Removing PWL point (1.4e-10,0)
v15: Removing PWL point (2.21e-10,1)
v15: Removing PWL point (2.41e-10,0)
v15: Removing PWL point (4.61e-10,1)
v15: Removing PWL point (5.21e-10,0)
v15: Removing PWL point (5.41e-10,1)
v15: Removing PWL point (5.81e-10,0)
v15: Removing PWL point (7.21e-10,1)
v15: Removing PWL point (7.81e-10,0)
v15: Removing PWL point (8.21e-10,1)
v15: Removing PWL point (8.41e-10,0)
v15: Removing PWL point (8.81e-10,1)
v15: Removing PWL point (9.01e-10,0)
v15: Removing PWL point (9.4e-10,1)
v15: Removing PWL point (9.61e-10,0)
v15: Removing PWL point (1.021e-09,1)
v15: Removing PWL point (1.06e-09,0)
v15: Removing PWL point (1.101e-09,1)
v15: Removing PWL point (1.12e-09,0)
v15: Removing PWL point (1.18e-09,1)
v15: Removing PWL point (1.201e-09,0)
v15: Removing PWL point (1.221e-09,1)
v15: Removing PWL point (1.24e-09,0)
v15: Removing PWL point (1.281e-09,1)
v15: Removing PWL point (1.3e-09,0)
v15: Removing PWL point (1.321e-09,1)
v15: Removing PWL point (1.341e-09,0)
v15: Removing PWL point (1.36e-09,1)
v15: Removing PWL point (1.401e-09,0)
v15: Removing PWL point (1.42e-09,1)
v15: Removing PWL point (1.461e-09,0)
v15: Removing PWL point (1.641e-09,1)
v15: Removing PWL point (1.66e-09,0)
v15: Removing PWL point (1.681e-09,1)
v15: Removing PWL point (1.78e-09,0)
v15: Removing PWL point (1.921e-09,1)
v15: Removing PWL point (1.961e-09,0)
v15: Removing PWL point (2.021e-09,1)
v15: Removing PWL point (2.041e-09,0)
v15: Removing PWL point (2.24e-09,1)
v15: Removing PWL point (2.281e-09,0)
v15: Removing PWL point (2.301e-09,1)
v15: Removing PWL point (2.36e-09,0)
v15: Removing PWL point (2.381e-09,1)
v15: Removing PWL point (2.441e-09,0)
v15: Removing PWL point (2.501e-09,1)
v15: Removing PWL point (2.521e-09,0)
v15: Removing PWL point (2.541e-09,1)
v15: Removing PWL point (2.561e-09,0)
v15: Removing PWL point (2.74e-09,1)
v15: Removing PWL point (2.761e-09,0)
v15: Removing PWL point (2.781e-09,1)
v15: Removing PWL point (2.84e-09,0)
v15: Removing PWL point (3.08e-09,1)
v15: Removing PWL point (3.1e-09,0)
v15: Removing PWL point (3.261e-09,1)
v15: Removing PWL point (3.281e-09,0)
v15: Removing PWL point (3.32e-09,1)
v15: Removing PWL point (3.34e-09,0)
v15: Removing PWL point (3.381e-09,1)
v15: Removing PWL point (3.401e-09,0)
v15: Removing PWL point (3.521e-09,1)
v15: Removing PWL point (3.541e-09,0)
v15: Removing PWL point (3.661e-09,1)
v15: Removing PWL point (3.681e-09,0)
v15: Removing PWL point (3.7e-09,1)
v15: Removing PWL point (3.721e-09,0)
v15: Removing PWL point (3.82e-09,1)
v15: Removing PWL point (3.841e-09,0)
v15: Removing PWL point (3.981e-09,1)
v15: Removing PWL point (4e-09,0)
v15: Removing PWL point (4.021e-09,1)
v15: Removing PWL point (4.041e-09,0)
v15: Removing PWL point (4.101e-09,1)
v15: Removing PWL point (4.14e-09,0)
v15: Removing PWL point (4.24e-09,1)
v15: Removing PWL point (4.301e-09,0)
v15: Removing PWL point (4.321e-09,1)
v15: Removing PWL point (4.341e-09,0)
v15: Removing PWL point (4.38e-09,1)
v15: Removing PWL point (4.401e-09,0)
v15: Removing PWL point (4.521e-09,1)
v15: Removing PWL point (4.561e-09,0)
v15: Removing PWL point (4.581e-09,1)
v15: Removing PWL point (4.641e-09,0)
v15: Removing PWL point (4.681e-09,1)
v15: Removing PWL point (4.701e-09,0)
v15: Removing PWL point (4.761e-09,1)
v15: Removing PWL point (4.801e-09,0)
v15: Removing PWL point (4.821e-09,1)
v15: Removing PWL point (4.841e-09,0)
v15: Removing PWL point (4.86e-09,1)
v15: Removing PWL point (4.881e-09,0)
v15: Removing PWL point (4.921e-09,1)
v15: Removing PWL point (4.941e-09,0)
v15: Removing PWL point (5.041e-09,1)
v15: Removing PWL point (5.061e-09,0)
v15: Removing PWL point (5.1e-09,1)
v15: Removing PWL point (5.161e-09,0)
v15: Removing PWL point (5.181e-09,1)
v15: Removing PWL point (5.24e-09,0)
v15: Removing PWL point (5.401e-09,1)
v15: Removing PWL point (5.421e-09,0)
v15: Removing PWL point (5.461e-09,1)
v15: Removing PWL point (5.48e-09,0)
v15: Removing PWL point (5.501e-09,1)
v15: Removing PWL point (5.521e-09,0)
v15: Removing PWL point (5.58e-09,1)
v15: Removing PWL point (5.621e-09,0)
v15: Removing PWL point (5.741e-09,1)
v15: Removing PWL point (5.761e-09,0)
v15: Removing PWL point (5.781e-09,1)
v15: Removing PWL point (5.801e-09,0)
v15: Removing PWL point (5.82e-09,1)
v15: Removing PWL point (5.841e-09,0)
v15: Removing PWL point (5.881e-09,1)
v15: Removing PWL point (5.901e-09,0)
v15: Removing PWL point (6.001e-09,1)
v15: Removing PWL point (6.081e-09,0)
v15: Removing PWL point (6.16e-09,1)
v15: Removing PWL point (6.2e-09,0)
v15: Removing PWL point (6.221e-09,1)
v15: Removing PWL point (6.241e-09,0)
v15: Removing PWL point (6.261e-09,1)
v15: Removing PWL point (6.3e-09,0)
v15: Removing PWL point (6.341e-09,1)
v15: Removing PWL point (6.361e-09,0)
v17: Removing PWL point (1e-12,0)
v17: Removing PWL point (2.1e-11,1)
v17: Removing PWL point (6.1e-11,0)
v17: Removing PWL point (1.81e-10,1)
v17: Removing PWL point (2e-10,0)
v17: Removing PWL point (2.8e-10,1)
v17: Removing PWL point (3.01e-10,0)
v17: Removing PWL point (3.21e-10,1)
v17: Removing PWL point (3.4e-10,0)
v17: Removing PWL point (4.41e-10,1)
v17: Removing PWL point (4.61e-10,0)
v17: Removing PWL point (4.81e-10,1)
v17: Removing PWL point (5e-10,0)
v17: Removing PWL point (5.21e-10,1)
v17: Removing PWL point (5.41e-10,0)
v17: Removing PWL point (5.6e-10,1)
v17: Removing PWL point (5.81e-10,0)
v17: Removing PWL point (6.2e-10,1)
v17: Removing PWL point (6.41e-10,0)
v17: Removing PWL point (6.8e-10,1)
v17: Removing PWL point (7.01e-10,0)
v17: Removing PWL point (8e-10,1)
v17: Removing PWL point (8.21e-10,0)
v17: Removing PWL point (8.6e-10,1)
v17: Removing PWL point (8.81e-10,0)
v17: Removing PWL point (9.01e-10,1)
v17: Removing PWL point (9.21e-10,0)
v17: Removing PWL point (9.4e-10,1)
v17: Removing PWL point (9.61e-10,0)
v17: Removing PWL point (1.041e-09,1)
v17: Removing PWL point (1.06e-09,0)
v17: Removing PWL point (1.081e-09,1)
v17: Removing PWL point (1.101e-09,0)
v17: Removing PWL point (1.141e-09,1)
v17: Removing PWL point (1.201e-09,0)
v17: Removing PWL point (1.221e-09,1)
v17: Removing PWL point (1.24e-09,0)
v17: Removing PWL point (1.281e-09,1)
v17: Removing PWL point (1.3e-09,0)
v17: Removing PWL point (1.321e-09,1)
v17: Removing PWL point (1.36e-09,0)
v17: Removing PWL point (1.381e-09,1)
v17: Removing PWL point (1.401e-09,0)
v17: Removing PWL point (1.501e-09,1)
v17: Removing PWL point (1.521e-09,0)
v17: Removing PWL point (1.54e-09,1)
v17: Removing PWL point (1.561e-09,0)
v17: Removing PWL point (1.621e-09,1)
v17: Removing PWL point (1.641e-09,0)
v17: Removing PWL point (1.66e-09,1)
v17: Removing PWL point (1.681e-09,0)
v17: Removing PWL point (1.78e-09,1)
v17: Removing PWL point (1.821e-09,0)
v17: Removing PWL point (1.941e-09,1)
v17: Removing PWL point (1.961e-09,0)
v17: Removing PWL point (2.081e-09,1)
v17: Removing PWL point (2.101e-09,0)
v17: Removing PWL point (2.161e-09,1)
v17: Removing PWL point (2.181e-09,0)
v17: Removing PWL point (2.201e-09,1)
v17: Removing PWL point (2.221e-09,0)
v17: Removing PWL point (2.261e-09,1)
v17: Removing PWL point (2.281e-09,0)
v17: Removing PWL point (2.381e-09,1)
v17: Removing PWL point (2.401e-09,0)
v17: Removing PWL point (2.581e-09,1)
v17: Removing PWL point (2.6e-09,0)
v17: Removing PWL point (2.62e-09,1)
v17: Removing PWL point (2.641e-09,0)
v17: Removing PWL point (2.821e-09,1)
v17: Removing PWL point (2.84e-09,0)
v17: Removing PWL point (2.881e-09,1)
v17: Removing PWL point (2.901e-09,0)
v17: Removing PWL point (3.001e-09,1)
v17: Removing PWL point (3.041e-09,0)
v17: Removing PWL point (3.141e-09,1)
v17: Removing PWL point (3.161e-09,0)
v17: Removing PWL point (3.241e-09,1)
v17: Removing PWL point (3.261e-09,0)
v17: Removing PWL point (3.281e-09,1)
v17: Removing PWL point (3.32e-09,0)
v17: Removing PWL point (3.361e-09,1)
v17: Removing PWL point (3.46e-09,0)
v17: Removing PWL point (3.641e-09,1)
v17: Removing PWL point (3.661e-09,0)
v17: Removing PWL point (3.7e-09,1)
v17: Removing PWL point (3.721e-09,0)
v17: Removing PWL point (3.781e-09,1)
v17: Removing PWL point (3.86e-09,0)
v17: Removing PWL point (3.881e-09,1)
v17: Removing PWL point (3.9e-09,0)
v17: Removing PWL point (3.96e-09,1)
v17: Removing PWL point (3.981e-09,0)
v17: Removing PWL point (4e-09,1)
v17: Removing PWL point (4.021e-09,0)
v17: Removing PWL point (4.161e-09,1)
v17: Removing PWL point (4.181e-09,0)
v17: Removing PWL point (4.201e-09,1)
v17: Removing PWL point (4.221e-09,0)
v17: Removing PWL point (4.261e-09,1)
v17: Removing PWL point (4.281e-09,0)
v17: Removing PWL point (4.321e-09,1)
v17: Removing PWL point (4.341e-09,0)
v17: Removing PWL point (4.361e-09,1)
v17: Removing PWL point (4.401e-09,0)
v17: Removing PWL point (4.421e-09,1)
v17: Removing PWL point (4.441e-09,0)
v17: Removing PWL point (4.501e-09,1)
v17: Removing PWL point (4.521e-09,0)
v17: Removing PWL point (4.541e-09,1)
v17: Removing PWL point (4.581e-09,0)
v17: Removing PWL point (4.601e-09,1)
v17: Removing PWL point (4.62e-09,0)
v17: Removing PWL point (4.661e-09,1)
v17: Removing PWL point (4.701e-09,0)
v17: Removing PWL point (4.781e-09,1)
v17: Removing PWL point (4.801e-09,0)
v17: Removing PWL point (4.821e-09,1)
v17: Removing PWL point (4.86e-09,0)
v17: Removing PWL point (5.061e-09,1)
v17: Removing PWL point (5.081e-09,0)
v17: Removing PWL point (5.161e-09,1)
v17: Removing PWL point (5.181e-09,0)
v17: Removing PWL point (5.321e-09,1)
v17: Removing PWL point (5.361e-09,0)
v17: Removing PWL point (5.44e-09,1)
v17: Removing PWL point (5.461e-09,0)
v17: Removing PWL point (5.561e-09,1)
v17: Removing PWL point (5.58e-09,0)
v17: Removing PWL point (5.601e-09,1)
v17: Removing PWL point (5.621e-09,0)
v17: Removing PWL point (5.741e-09,1)
v17: Removing PWL point (5.781e-09,0)
v17: Removing PWL point (5.82e-09,1)
v17: Removing PWL point (5.861e-09,0)
v17: Removing PWL point (5.881e-09,1)
v17: Removing PWL point (5.901e-09,0)
v17: Removing PWL point (5.92e-09,1)
v17: Removing PWL point (6.021e-09,0)
v17: Removing PWL point (6.06e-09,1)
v17: Removing PWL point (6.081e-09,0)
v17: Removing PWL point (6.2e-09,1)
v17: Removing PWL point (6.221e-09,0)
v17: Removing PWL point (6.281e-09,1)
v17: Removing PWL point (6.3e-09,0)
v17: Removing PWL point (6.321e-09,1)
v17: Removing PWL point (6.341e-09,0)
v18: Removing PWL point (1e-12,1)
v18: Removing PWL point (2.1e-11,0)
v18: Removing PWL point (6.1e-11,1)
v18: Removing PWL point (1.81e-10,0)
v18: Removing PWL point (2.21e-10,1)
v18: Removing PWL point (2.41e-10,0)
v18: Removing PWL point (2.61e-10,1)
v18: Removing PWL point (2.8e-10,0)
v18: Removing PWL point (3.4e-10,1)
v18: Removing PWL point (3.61e-10,0)
v18: Removing PWL point (3.81e-10,1)
v18: Removing PWL point (4e-10,0)
v18: Removing PWL point (4.21e-10,1)
v18: Removing PWL point (4.41e-10,0)
v18: Removing PWL point (5e-10,1)
v18: Removing PWL point (5.21e-10,0)
v18: Removing PWL point (5.41e-10,1)
v18: Removing PWL point (5.6e-10,0)
v18: Removing PWL point (6.01e-10,1)
v18: Removing PWL point (6.2e-10,0)
v18: Removing PWL point (6.41e-10,1)
v18: Removing PWL point (6.8e-10,0)
v18: Removing PWL point (7.01e-10,1)
v18: Removing PWL point (7.21e-10,0)
v18: Removing PWL point (7.4e-10,1)
v18: Removing PWL point (7.61e-10,0)
v18: Removing PWL point (7.81e-10,1)
v18: Removing PWL point (8e-10,0)
v18: Removing PWL point (8.81e-10,1)
v18: Removing PWL point (9.01e-10,0)
v18: Removing PWL point (1.021e-09,1)
v18: Removing PWL point (1.041e-09,0)
v18: Removing PWL point (1.06e-09,1)
v18: Removing PWL point (1.081e-09,0)
v18: Removing PWL point (1.12e-09,1)
v18: Removing PWL point (1.141e-09,0)
v18: Removing PWL point (1.201e-09,1)
v18: Removing PWL point (1.221e-09,0)
v18: Removing PWL point (1.24e-09,1)
v18: Removing PWL point (1.281e-09,0)
v18: Removing PWL point (1.3e-09,1)
v18: Removing PWL point (1.321e-09,0)
v18: Removing PWL point (1.401e-09,1)
v18: Removing PWL point (1.42e-09,0)
v18: Removing PWL point (1.441e-09,1)
v18: Removing PWL point (1.501e-09,0)
v18: Removing PWL point (1.521e-09,1)
v18: Removing PWL point (1.54e-09,0)
v18: Removing PWL point (1.641e-09,1)
v18: Removing PWL point (1.66e-09,0)
v18: Removing PWL point (1.72e-09,1)
v18: Removing PWL point (1.741e-09,0)
v18: Removing PWL point (1.761e-09,1)
v18: Removing PWL point (1.78e-09,0)
v18: Removing PWL point (1.88e-09,1)
v18: Removing PWL point (1.921e-09,0)
v18: Removing PWL point (1.961e-09,1)
v18: Removing PWL point (1.98e-09,0)
v18: Removing PWL point (2.021e-09,1)
v18: Removing PWL point (2.061e-09,0)
v18: Removing PWL point (2.141e-09,1)
v18: Removing PWL point (2.161e-09,0)
v18: Removing PWL point (2.181e-09,1)
v18: Removing PWL point (2.201e-09,0)
v18: Removing PWL point (2.281e-09,1)
v18: Removing PWL point (2.301e-09,0)
v18: Removing PWL point (2.321e-09,1)
v18: Removing PWL point (2.341e-09,0)
v18: Removing PWL point (2.48e-09,1)
v18: Removing PWL point (2.541e-09,0)
v18: Removing PWL point (2.561e-09,1)
v18: Removing PWL point (2.581e-09,0)
v18: Removing PWL point (2.6e-09,1)
v18: Removing PWL point (2.62e-09,0)
v18: Removing PWL point (2.641e-09,1)
v18: Removing PWL point (2.661e-09,0)
v18: Removing PWL point (2.681e-09,1)
v18: Removing PWL point (2.701e-09,0)
v18: Removing PWL point (2.74e-09,1)
v18: Removing PWL point (2.761e-09,0)
v18: Removing PWL point (2.781e-09,1)
v18: Removing PWL point (2.821e-09,0)
v18: Removing PWL point (2.86e-09,1)
v18: Removing PWL point (2.881e-09,0)
v18: Removing PWL point (2.901e-09,1)
v18: Removing PWL point (2.96e-09,0)
v18: Removing PWL point (2.98e-09,1)
v18: Removing PWL point (3.001e-09,0)
v18: Removing PWL point (3.041e-09,1)
v18: Removing PWL point (3.061e-09,0)
v18: Removing PWL point (3.121e-09,1)
v18: Removing PWL point (3.141e-09,0)
v18: Removing PWL point (3.161e-09,1)
v18: Removing PWL point (3.181e-09,0)
v18: Removing PWL point (3.2e-09,1)
v18: Removing PWL point (3.241e-09,0)
v18: Removing PWL point (3.261e-09,1)
v18: Removing PWL point (3.281e-09,0)
v18: Removing PWL point (3.32e-09,1)
v18: Removing PWL point (3.34e-09,0)
v18: Removing PWL point (3.501e-09,1)
v18: Removing PWL point (3.58e-09,0)
v18: Removing PWL point (3.621e-09,1)
v18: Removing PWL point (3.641e-09,0)
v18: Removing PWL point (3.681e-09,1)
v18: Removing PWL point (3.7e-09,0)
v18: Removing PWL point (3.741e-09,1)
v18: Removing PWL point (3.76e-09,0)
v18: Removing PWL point (3.86e-09,1)
v18: Removing PWL point (3.881e-09,0)
v18: Removing PWL point (3.9e-09,1)
v18: Removing PWL point (3.921e-09,0)
v18: Removing PWL point (3.941e-09,1)
v18: Removing PWL point (3.96e-09,0)
v18: Removing PWL point (3.981e-09,1)
v18: Removing PWL point (4e-09,0)
v18: Removing PWL point (4.14e-09,1)
v18: Removing PWL point (4.161e-09,0)
v18: Removing PWL point (4.181e-09,1)
v18: Removing PWL point (4.201e-09,0)
v18: Removing PWL point (4.281e-09,1)
v18: Removing PWL point (4.321e-09,0)
v18: Removing PWL point (4.401e-09,1)
v18: Removing PWL point (4.421e-09,0)
v18: Removing PWL point (4.441e-09,1)
v18: Removing PWL point (4.48e-09,0)
v18: Removing PWL point (4.581e-09,1)
v18: Removing PWL point (4.601e-09,0)
v18: Removing PWL point (4.641e-09,1)
v18: Removing PWL point (4.661e-09,0)
v18: Removing PWL point (4.701e-09,1)
v18: Removing PWL point (4.72e-09,0)
v18: Removing PWL point (4.741e-09,1)
v18: Removing PWL point (4.761e-09,0)
v18: Removing PWL point (4.801e-09,1)
v18: Removing PWL point (4.821e-09,0)
v18: Removing PWL point (4.881e-09,1)
v18: Removing PWL point (4.901e-09,0)
v18: Removing PWL point (4.96e-09,1)
v18: Removing PWL point (5.061e-09,0)
v18: Removing PWL point (5.081e-09,1)
v18: Removing PWL point (5.121e-09,0)
v18: Removing PWL point (5.141e-09,1)
v18: Removing PWL point (5.161e-09,0)
v18: Removing PWL point (5.181e-09,1)
v18: Removing PWL point (5.2e-09,0)
v18: Removing PWL point (5.24e-09,1)
v18: Removing PWL point (5.261e-09,0)
v18: Removing PWL point (5.301e-09,1)
v18: Removing PWL point (5.321e-09,0)
v18: Removing PWL point (5.381e-09,1)
v18: Removing PWL point (5.401e-09,0)
v18: Removing PWL point (5.421e-09,1)
v18: Removing PWL point (5.44e-09,0)
v18: Removing PWL point (5.48e-09,1)
v18: Removing PWL point (5.501e-09,0)
v18: Removing PWL point (5.541e-09,1)
v18: Removing PWL point (5.561e-09,0)
v18: Removing PWL point (5.58e-09,1)
v18: Removing PWL point (5.601e-09,0)
v18: Removing PWL point (5.661e-09,1)
v18: Removing PWL point (5.68e-09,0)
v18: Removing PWL point (5.72e-09,1)
v18: Removing PWL point (5.741e-09,0)
v18: Removing PWL point (5.781e-09,1)
v18: Removing PWL point (5.82e-09,0)
v18: Removing PWL point (6.021e-09,1)
v18: Removing PWL point (6.06e-09,0)
v18: Removing PWL point (6.141e-09,1)
v18: Removing PWL point (6.181e-09,0)
v18: Removing PWL point (6.221e-09,1)
v18: Removing PWL point (6.241e-09,0)
v18: Removing PWL point (6.361e-09,1)
WARNING: Less than two connections to node nc_61.  This node is used by b1.
WARNING: Less than two connections to node nc_62.  This node is used by b2.
Direct Newton iteration for .op point succeeded.
Heightened Def Con from 2.88742e-17 +++to 5.00029e-13
Heightened Def Con from 2.0052e-11 +++to 2.06145e-11
Heightened Def Con from 4.00366e-11 +++to 4.05991e-11
Heightened Def Con from 1.80052e-10 +++to 1.8056e-10
Heightened Def Con from 1.80603e-10 +++++++++++++++++to 1.80665e-10
Heightened Def Con from 1.80805e-10 +++++++++++++++to 1.82305e-10
Heightened Def Con from 1.985e-10 ++++++to 1.9905e-10
Heightened Def Con from 2.78709e-10 +++++++++++to 2.7871e-10
Heightened Def Con from 2.7871e-10 +++to 2.78746e-10
Heightened Def Con from 2.792e-10 +++to 2.807e-10
Heightened Def Con from 2.81208e-10 +++to 2.81708e-10
Heightened Def Con from 3.20295e-10 to 3.20357e-10
Heightened Def Con from 3.20562e-10 ++++++++++++++++++++to 3.21124e-10
Heightened Def Con from 3.39329e-10 +++++to 3.40829e-10
Heightened Def Con from 3.60037e-10 +++to 3.60599e-10
Heightened Def Con from 4.01607e-10 +++to 4.02107e-10
Heightened Def Con from 4.40052e-10 +++to 4.4056e-10
Heightened Def Con from 4.40603e-10 +++++++++++++++++to 4.40665e-10
Heightened Def Con from 4.40805e-10 +++++++++++++++to 4.42305e-10
Heightened Def Con from 4.595e-10 ++++++to 4.6005e-10
Heightened Def Con from 4.60052e-10 +++to 4.60614e-10
Heightened Def Con from 5.21832e-10 +++to 5.22332e-10
Heightened Def Con from 5.80037e-10 +++to 5.80599e-10
Heightened Def Con from 6.19052e-10 +++to 6.19614e-10
Heightened Def Con from 6.22287e-10 ++to 6.22787e-10
Heightened Def Con from 6.79052e-10 +++to 6.79614e-10
Heightened Def Con from 6.82287e-10 ++to 6.82787e-10
Heightened Def Con from 7.99052e-10 +++to 7.9956e-10
Heightened Def Con from 7.99603e-10 +++++++++++++++++to 7.99665e-10
Heightened Def Con from 7.99805e-10 +++++++++++++++to 8.01305e-10
Heightened Def Con from 8.195e-10 ++++++to 8.2005e-10
Heightened Def Con from 8.20052e-10 +++to 8.20614e-10
Heightened Def Con from 8.40948e-10 ++to 8.4151e-10
Heightened Def Con from 8.41978e-10 ++to 8.42478e-10
Heightened Def Con from 8.585e-10 to 8.58502e-10
Heightened Def Con from 8.58508e-10 +++to 8.58516e-10
Heightened Def Con from 8.59045e-10 +++++++++++to 8.60108e-10
Heightened Def Con from 8.61561e-10 +++to 8.62061e-10
Heightened Def Con from 9.01832e-10 +++to 9.02332e-10
Heightened Def Con from 9.60037e-10 +++to 9.60599e-10
Heightened Def Con from 9.8271e-10 +++to 9.8321e-10
Heightened Def Con from 1.05871e-09 +++++++++to 1.05871e-09
Heightened Def Con from 1.05871e-09 +++to 1.05871e-09
Heightened Def Con from 1.05946e-09 ++to 1.06002e-09
Heightened Def Con from 1.07971e-09 +++++++++++to 1.07971e-09
Heightened Def Con from 1.07971e-09 ++to 1.07971e-09
Heightened Def Con from 1.08045e-09 +++++++++++++++++to 1.08051e-09
Heightened Def Con from 1.0995e-09 ++++++to 1.10005e-09
Heightened Def Con from 1.10005e-09 +++to 1.10061e-09
Heightened Def Con from 1.11905e-09 +++to 1.11961e-09
Heightened Def Con from 1.13971e-09 +++++++++++to 1.13971e-09
Heightened Def Con from 1.13971e-09 +++to 1.13971e-09
Heightened Def Con from 1.14022e-09 ++to 1.14172e-09
Heightened Def Con from 1.14223e-09 +++to 1.14273e-09
Heightened Def Con from 1.1595e-09 ++++to 1.1595e-09
Heightened Def Con from 1.1595e-09 ++++++++++++to 1.15951e-09
Heightened Def Con from 1.15951e-09 ++to 1.15957e-09
Heightened Def Con from 1.1605e-09 ++++++++++++++++to 1.16051e-09
Heightened Def Con from 1.1785e-09 +++to 1.17905e-09
Heightened Def Con from 1.1799e-09 ++to 1.1809e-09
Heightened Def Con from 1.20004e-09 +++to 1.2006e-09
Heightened Def Con from 1.22005e-09 +++to 1.22061e-09
Heightened Def Con from 1.23871e-09 +++++++++to 1.23871e-09
Heightened Def Con from 1.23871e-09 +++to 1.23871e-09
Heightened Def Con from 1.23946e-09 ++to 1.24002e-09
Heightened Def Con from 1.28005e-09 +++to 1.28061e-09
Heightened Def Con from 1.29871e-09 +++++++++to 1.29871e-09
Heightened Def Con from 1.29871e-09 +++to 1.29871e-09
Heightened Def Con from 1.29946e-09 ++to 1.30002e-09
Heightened Def Con from 1.31971e-09 +++++++++to 1.31971e-09
Heightened Def Con from 1.31971e-09 +++to 1.31971e-09
Heightened Def Con from 1.32046e-09 ++to 1.32102e-09
Heightened Def Con from 1.34004e-09 +++to 1.3406e-09
Heightened Def Con from 1.40004e-09 +++to 1.4006e-09
Heightened Def Con from 1.50005e-09 +++to 1.50061e-09
Heightened Def Con from 1.50329e-09 ++to 1.50379e-09
Heightened Def Con from 1.53905e-09 +++to 1.53961e-09
Heightened Def Con from 1.54229e-09 ++to 1.54279e-09
Heightened Def Con from 1.5595e-09 ++++to 1.5595e-09
Heightened Def Con from 1.5595e-09 ++++++++++++to 1.55951e-09
Heightened Def Con from 1.55951e-09 ++to 1.55952e-09
Heightened Def Con from 1.56041e-09 to 1.56048e-09
Heightened Def Con from 1.56048e-09 to 1.56148e-09
Heightened Def Con from 1.56236e-09 ++++++to 1.56286e-09
Heightened Def Con from 1.60171e-09 +++to 1.60221e-09
Heightened Def Con from 1.6195e-09 ++++to 1.6195e-09
Heightened Def Con from 1.6195e-09 ++++++++++++to 1.61951e-09
Heightened Def Con from 1.61951e-09 ++to 1.61957e-09
Heightened Def Con from 1.6205e-09 ++++++++++++++++to 1.62051e-09
Heightened Def Con from 1.6395e-09 +++to 1.64005e-09
Heightened Def Con from 1.65954e-09 +++++++++++++++++++to 1.66104e-09
Heightened Def Con from 1.6795e-09 to 1.6795e-09
Heightened Def Con from 1.6795e-09 +++++to 1.68056e-09
Heightened Def Con from 1.68056e-09 +++to 1.68113e-09
Heightened Def Con from 1.77955e-09 +++++++++++++++++++to 1.78105e-09
Heightened Def Con from 1.7995e-09 to 1.7995e-09
Heightened Def Con from 1.7995e-09 ++++++to 1.80056e-09
Heightened Def Con from 1.80116e-09 +++++to 1.80166e-09
Heightened Def Con from 1.95971e-09 to 1.95983e-09
Heightened Def Con from 1.95984e-09 +++to 1.95991e-09
Heightened Def Con from 1.96011e-09 to 1.96161e-09
Heightened Def Con from 1.96162e-09 ++to 1.96212e-09
Heightened Def Con from 1.97964e-09 +++to 1.98014e-09
Heightened Def Con from 2.08101e-09 ++to 2.08151e-09
Heightened Def Con from 2.08251e-09 ++to 2.08301e-09
Heightened Def Con from 2.08375e-09 ++to 2.08425e-09
Heightened Def Con from 2.0995e-09 to 2.09957e-09
Heightened Def Con from 2.10011e-09 +++++++++++to 2.10117e-09
Heightened Def Con from 2.10262e-09 +++to 2.10312e-09
Heightened Def Con from 2.16059e-09 +++to 2.16209e-09
Heightened Def Con from 2.1626e-09 +++to 2.1631e-09
Heightened Def Con from 2.20018e-09 ++++++++++++to 2.20124e-09
Heightened Def Con from 2.2195e-09 ++++++to 2.221e-09
Heightened Def Con from 2.27974e-09 +++++++++++++++to 2.27974e-09
Heightened Def Con from 2.27975e-09 +++to 2.28031e-09
Heightened Def Con from 2.28091e-09 +++to 2.28148e-09
Heightened Def Con from 2.30065e-09 +++to 2.30121e-09
Heightened Def Con from 2.38137e-09 ++to 2.38187e-09
Heightened Def Con from 2.48037e-09 ++to 2.48087e-09

Date: Wed Oct  8 20:02:00 2025
Total elapsed time: 3.291 seconds.

tnom = 27
temp = 27
method = modified trap
totiter = 111171
traniter = 111158
tranpoints = 15396
accept = 7632
rejected = 8500
matrix size = 84
fillins = 3
solver = Normal
Avg thread counts: 1.1/1.8/1.8/1.1
Matrix Compiler1: 3.63 KB object code size  1.9/1.1/[1.0]
Matrix Compiler2: off  [1.1]/2.1/1.3

