Circuit: * C:\Users\16474\Desktop\thesis\pam3_driver.asc

v3: Removing PWL point (1e-12,0)
v3: Removing PWL point (1.81e-10,1)
v3: Removing PWL point (2e-10,0)
v3: Removing PWL point (2.61e-10,1)
v3: Removing PWL point (2.8e-10,0)
v3: Removing PWL point (3.21e-10,1)
v3: Removing PWL point (3.81e-10,0)
v3: Removing PWL point (4e-10,1)
v3: Removing PWL point (4.21e-10,0)
v3: Removing PWL point (4.41e-10,1)
v3: Removing PWL point (4.61e-10,0)
v3: Removing PWL point (8e-10,1)
v3: Removing PWL point (8.21e-10,0)
v3: Removing PWL point (8.41e-10,1)
v3: Removing PWL point (8.6e-10,0)
v3: Removing PWL point (9.81e-10,1)
v3: Removing PWL point (1.021e-09,0)
v3: Removing PWL point (1.06e-09,1)
v3: Removing PWL point (1.101e-09,0)
v3: Removing PWL point (1.12e-09,1)
v3: Removing PWL point (1.141e-09,0)
v3: Removing PWL point (1.161e-09,1)
v3: Removing PWL point (1.18e-09,0)
v3: Removing PWL point (1.24e-09,1)
v3: Removing PWL point (1.261e-09,0)
v3: Removing PWL point (1.3e-09,1)
v3: Removing PWL point (1.321e-09,0)
v3: Removing PWL point (1.561e-09,1)
v3: Removing PWL point (1.581e-09,0)
v3: Removing PWL point (1.6e-09,1)
v3: Removing PWL point (1.641e-09,0)
v3: Removing PWL point (1.66e-09,1)
v3: Removing PWL point (1.681e-09,0)
v3: Removing PWL point (1.78e-09,1)
v3: Removing PWL point (1.801e-09,0)
v3: Removing PWL point (1.961e-09,1)
v3: Removing PWL point (2.021e-09,0)
v3: Removing PWL point (2.101e-09,1)
v3: Removing PWL point (2.161e-09,0)
v3: Removing PWL point (2.201e-09,1)
v3: Removing PWL point (2.24e-09,0)
v3: Removing PWL point (2.281e-09,1)
v3: Removing PWL point (2.301e-09,0)
v3: Removing PWL point (2.48e-09,1)
v3: Removing PWL point (2.501e-09,0)
v3: Removing PWL point (2.521e-09,1)
v3: Removing PWL point (2.541e-09,0)
v3: Removing PWL point (2.6e-09,1)
v3: Removing PWL point (2.62e-09,0)
v3: Removing PWL point (2.641e-09,1)
v3: Removing PWL point (2.681e-09,0)
v3: Removing PWL point (2.701e-09,1)
v3: Removing PWL point (2.74e-09,0)
v3: Removing PWL point (2.84e-09,1)
v3: Removing PWL point (2.881e-09,0)
v3: Removing PWL point (2.921e-09,1)
v3: Removing PWL point (2.941e-09,0)
v3: Removing PWL point (2.96e-09,1)
v3: Removing PWL point (3.001e-09,0)
v3: Removing PWL point (3.021e-09,1)
v3: Removing PWL point (3.041e-09,0)
v3: Removing PWL point (3.121e-09,1)
v3: Removing PWL point (3.161e-09,0)
v3: Removing PWL point (3.181e-09,1)
v3: Removing PWL point (3.2e-09,0)
v3: Removing PWL point (3.22e-09,1)
v3: Removing PWL point (3.261e-09,0)
v3: Removing PWL point (3.301e-09,1)
v3: Removing PWL point (3.32e-09,0)
v3: Removing PWL point (3.44e-09,1)
v3: Removing PWL point (3.46e-09,0)
v3: Removing PWL point (3.541e-09,1)
v3: Removing PWL point (3.641e-09,0)
v3: Removing PWL point (3.681e-09,1)
v3: Removing PWL point (3.7e-09,0)
v3: Removing PWL point (3.76e-09,1)
v3: Removing PWL point (3.781e-09,0)
v3: Removing PWL point (3.941e-09,1)
v3: Removing PWL point (3.981e-09,0)
v3: Removing PWL point (4.041e-09,1)
v3: Removing PWL point (4.06e-09,0)
v3: Removing PWL point (4.14e-09,1)
v3: Removing PWL point (4.201e-09,0)
v3: Removing PWL point (4.221e-09,1)
v3: Removing PWL point (4.24e-09,0)
v3: Removing PWL point (4.341e-09,1)
v3: Removing PWL point (4.38e-09,0)
v3: Removing PWL point (4.401e-09,1)
v3: Removing PWL point (4.501e-09,0)
v3: Removing PWL point (4.561e-09,1)
v3: Removing PWL point (4.581e-09,0)
v3: Removing PWL point (4.641e-09,1)
v3: Removing PWL point (4.681e-09,0)
v3: Removing PWL point (4.701e-09,1)
v3: Removing PWL point (4.72e-09,0)
v3: Removing PWL point (4.801e-09,1)
v3: Removing PWL point (4.821e-09,0)
v3: Removing PWL point (4.881e-09,1)
v3: Removing PWL point (4.921e-09,0)
v3: Removing PWL point (4.96e-09,1)
v3: Removing PWL point (5.001e-09,0)
v3: Removing PWL point (5.021e-09,1)
v3: Removing PWL point (5.041e-09,0)
v3: Removing PWL point (5.081e-09,1)
v3: Removing PWL point (5.1e-09,0)
v3: Removing PWL point (5.161e-09,1)
v3: Removing PWL point (5.181e-09,0)
v3: Removing PWL point (5.24e-09,1)
v3: Removing PWL point (5.281e-09,0)
v3: Removing PWL point (5.301e-09,1)
v3: Removing PWL point (5.34e-09,0)
v3: Removing PWL point (5.381e-09,1)
v3: Removing PWL point (5.401e-09,0)
v3: Removing PWL point (5.44e-09,1)
v3: Removing PWL point (5.461e-09,0)
v3: Removing PWL point (5.48e-09,1)
v3: Removing PWL point (5.501e-09,0)
v3: Removing PWL point (5.521e-09,1)
v3: Removing PWL point (5.561e-09,0)
v3: Removing PWL point (5.621e-09,1)
v3: Removing PWL point (5.68e-09,0)
v3: Removing PWL point (5.801e-09,1)
v3: Removing PWL point (5.82e-09,0)
v3: Removing PWL point (5.841e-09,1)
v3: Removing PWL point (5.881e-09,0)
v3: Removing PWL point (5.901e-09,1)
v3: Removing PWL point (5.941e-09,0)
v3: Removing PWL point (5.981e-09,1)
v3: Removing PWL point (6.001e-09,0)
v3: Removing PWL point (6.141e-09,1)
v3: Removing PWL point (6.16e-09,0)
v3: Removing PWL point (6.361e-09,1)
v2: Removing PWL point (1e-12,0)
v2: Removing PWL point (2.1e-11,1)
v2: Removing PWL point (4.1e-11,0)
v2: Removing PWL point (6.1e-11,1)
v2: Removing PWL point (1.4e-10,0)
v2: Removing PWL point (2.21e-10,1)
v2: Removing PWL point (2.41e-10,0)
v2: Removing PWL point (4.61e-10,1)
v2: Removing PWL point (5.21e-10,0)
v2: Removing PWL point (5.41e-10,1)
v2: Removing PWL point (5.81e-10,0)
v2: Removing PWL point (7.21e-10,1)
v2: Removing PWL point (7.81e-10,0)
v2: Removing PWL point (8.21e-10,1)
v2: Removing PWL point (8.41e-10,0)
v2: Removing PWL point (8.81e-10,1)
v2: Removing PWL point (9.01e-10,0)
v2: Removing PWL point (9.4e-10,1)
v2: Removing PWL point (9.61e-10,0)
v2: Removing PWL point (1.021e-09,1)
v2: Removing PWL point (1.06e-09,0)
v2: Removing PWL point (1.101e-09,1)
v2: Removing PWL point (1.12e-09,0)
v2: Removing PWL point (1.18e-09,1)
v2: Removing PWL point (1.201e-09,0)
v2: Removing PWL point (1.221e-09,1)
v2: Removing PWL point (1.24e-09,0)
v2: Removing PWL point (1.281e-09,1)
v2: Removing PWL point (1.3e-09,0)
v2: Removing PWL point (1.321e-09,1)
v2: Removing PWL point (1.341e-09,0)
v2: Removing PWL point (1.36e-09,1)
v2: Removing PWL point (1.401e-09,0)
v2: Removing PWL point (1.42e-09,1)
v2: Removing PWL point (1.461e-09,0)
v2: Removing PWL point (1.641e-09,1)
v2: Removing PWL point (1.66e-09,0)
v2: Removing PWL point (1.681e-09,1)
v2: Removing PWL point (1.78e-09,0)
v2: Removing PWL point (1.921e-09,1)
v2: Removing PWL point (1.961e-09,0)
v2: Removing PWL point (2.021e-09,1)
v2: Removing PWL point (2.041e-09,0)
v2: Removing PWL point (2.24e-09,1)
v2: Removing PWL point (2.281e-09,0)
v2: Removing PWL point (2.301e-09,1)
v2: Removing PWL point (2.36e-09,0)
v2: Removing PWL point (2.381e-09,1)
v2: Removing PWL point (2.441e-09,0)
v2: Removing PWL point (2.501e-09,1)
v2: Removing PWL point (2.521e-09,0)
v2: Removing PWL point (2.541e-09,1)
v2: Removing PWL point (2.561e-09,0)
v2: Removing PWL point (2.74e-09,1)
v2: Removing PWL point (2.761e-09,0)
v2: Removing PWL point (2.781e-09,1)
v2: Removing PWL point (2.84e-09,0)
v2: Removing PWL point (3.08e-09,1)
v2: Removing PWL point (3.1e-09,0)
v2: Removing PWL point (3.261e-09,1)
v2: Removing PWL point (3.281e-09,0)
v2: Removing PWL point (3.32e-09,1)
v2: Removing PWL point (3.34e-09,0)
v2: Removing PWL point (3.381e-09,1)
v2: Removing PWL point (3.401e-09,0)
v2: Removing PWL point (3.521e-09,1)
v2: Removing PWL point (3.541e-09,0)
v2: Removing PWL point (3.661e-09,1)
v2: Removing PWL point (3.681e-09,0)
v2: Removing PWL point (3.7e-09,1)
v2: Removing PWL point (3.721e-09,0)
v2: Removing PWL point (3.82e-09,1)
v2: Removing PWL point (3.841e-09,0)
v2: Removing PWL point (3.981e-09,1)
v2: Removing PWL point (4e-09,0)
v2: Removing PWL point (4.021e-09,1)
v2: Removing PWL point (4.041e-09,0)
v2: Removing PWL point (4.101e-09,1)
v2: Removing PWL point (4.14e-09,0)
v2: Removing PWL point (4.24e-09,1)
v2: Removing PWL point (4.301e-09,0)
v2: Removing PWL point (4.321e-09,1)
v2: Removing PWL point (4.341e-09,0)
v2: Removing PWL point (4.38e-09,1)
v2: Removing PWL point (4.401e-09,0)
v2: Removing PWL point (4.521e-09,1)
v2: Removing PWL point (4.561e-09,0)
v2: Removing PWL point (4.581e-09,1)
v2: Removing PWL point (4.641e-09,0)
v2: Removing PWL point (4.681e-09,1)
v2: Removing PWL point (4.701e-09,0)
v2: Removing PWL point (4.761e-09,1)
v2: Removing PWL point (4.801e-09,0)
v2: Removing PWL point (4.821e-09,1)
v2: Removing PWL point (4.841e-09,0)
v2: Removing PWL point (4.86e-09,1)
v2: Removing PWL point (4.881e-09,0)
v2: Removing PWL point (4.921e-09,1)
v2: Removing PWL point (4.941e-09,0)
v2: Removing PWL point (5.041e-09,1)
v2: Removing PWL point (5.061e-09,0)
v2: Removing PWL point (5.1e-09,1)
v2: Removing PWL point (5.161e-09,0)
v2: Removing PWL point (5.181e-09,1)
v2: Removing PWL point (5.24e-09,0)
v2: Removing PWL point (5.401e-09,1)
v2: Removing PWL point (5.421e-09,0)
v2: Removing PWL point (5.461e-09,1)
v2: Removing PWL point (5.48e-09,0)
v2: Removing PWL point (5.501e-09,1)
v2: Removing PWL point (5.521e-09,0)
v2: Removing PWL point (5.58e-09,1)
v2: Removing PWL point (5.621e-09,0)
v2: Removing PWL point (5.741e-09,1)
v2: Removing PWL point (5.761e-09,0)
v2: Removing PWL point (5.781e-09,1)
v2: Removing PWL point (5.801e-09,0)
v2: Removing PWL point (5.82e-09,1)
v2: Removing PWL point (5.841e-09,0)
v2: Removing PWL point (5.881e-09,1)
v2: Removing PWL point (5.901e-09,0)
v2: Removing PWL point (6.001e-09,1)
v2: Removing PWL point (6.081e-09,0)
v2: Removing PWL point (6.16e-09,1)
v2: Removing PWL point (6.2e-09,0)
v2: Removing PWL point (6.221e-09,1)
v2: Removing PWL point (6.241e-09,0)
v2: Removing PWL point (6.261e-09,1)
v2: Removing PWL point (6.3e-09,0)
v2: Removing PWL point (6.341e-09,1)
v2: Removing PWL point (6.361e-09,0)
Direct Newton iteration for .op point succeeded.

Date: Fri Sep  5 12:38:13 2025
Total elapsed time: 0.326 seconds.

tnom = 27
temp = 27
method = modified trap
totiter = 3663
traniter = 3658
tranpoints = 1643
accept = 1643
rejected = 0
matrix size = 9
fillins = 0
solver = Normal
Avg thread counts: 2.6/4.3/4.6/2.6
Matrix Compiler1: 350 bytes object code size  0.7/0.6/[0.5]
Matrix Compiler2: 635 bytes object code size  0.4/0.7/[0.4]

