Circuit: * C:\Users\16474\Desktop\thesis\rgm.asc

